@<TRIPOS>MOLECULE
B0Z
   42    44     1     0     0
SMALL
No Charge or Current Charge


@<TRIPOS>ATOM
      1 C1           1.3500     1.3390    -0.4550 cc         1 B0Z       0.399800
      2 C4          -0.8220     1.1150    -0.1710 cc         1 B0Z       0.432000
      3 C6          -2.1510     0.5130     0.0170 ca         1 B0Z      -0.091500
      4 C11         -2.3170    -0.8880     0.0740 ca         1 B0Z      -0.094500
      5 F13         -6.7190    -1.4810    -0.6220 f          1 B0Z      -0.112000
      6 F14         -6.9510    -0.4520     1.2790 f          1 B0Z      -0.112000
      7 F15         -6.0770    -2.4350     1.2230 f          1 B0Z      -0.112000
      8 C9          -4.7310    -0.6340     0.3850 ca         1 B0Z      -0.188300
      9 C8          -4.5700     0.7660     0.3180 ca         1 B0Z      -0.061000
     10 C7          -3.2950     1.3310     0.1390 ca         1 B0Z      -0.094500
     11 C10         -3.5920    -1.4540     0.2540 ca         1 B0Z      -0.061000
     12 N5           0.3470     0.4190    -0.2970 na         1 B0Z      -0.477000
     13 N3          -0.5490     2.4070    -0.2450 nd         1 B0Z      -0.350000
     14 N2           0.8070     2.5470    -0.4240 nd         1 B0Z      -0.335000
     15 C13          2.8220     0.9900    -0.6230 c6         1 B0Z       0.152000
     16 C2           3.6630     1.5170     0.5900 c6         1 B0Z       0.113300
     17 O2           3.6120     2.9580     0.7270 oh         1 B0Z      -0.722000
     18 O5           2.9990    -0.4490    -0.7470 os         1 B0Z      -0.413000
     19 C5           4.3650    -0.8810    -0.9820 c6         1 B0Z       0.168300
     20 C15          4.3580    -2.4290    -1.2040 c3         1 B0Z       0.172600
     21 O6           3.4770    -2.8500    -2.2680 oh         1 B0Z      -0.712000
     22 C14          5.2560    -0.4560     0.2250 c6         1 B0Z       0.144300
     23 O4           6.6370    -0.8160     0.0410 oh         1 B0Z      -0.717000
     24 C3           5.1480     1.0820     0.4180 c6         1 B0Z       0.101300
     25 O3           5.9270     1.5100     1.5480 oh         1 B0Z      -0.664000
     26 H1          -1.4630    -1.5530    -0.0210 ha         1 B0Z       0.130500
     27 H2          -5.4320     1.4250     0.4020 ha         1 B0Z       0.134000
     28 H3          -3.2040     2.4140     0.0940 ha         1 B0Z       0.130500
     29 H4          -3.6870    -2.5380     0.2870 ha         1 B0Z       0.134000
     30 H5           0.4630    -0.5820    -0.2880 hn         1 B0Z       0.365000
     31 H6           3.1950     1.4590    -1.5460 h1         1 B0Z       0.046700
     32 H7           3.2680     1.0390     1.5010 h1         1 B0Z       0.081700
     33 H8           2.6620     3.2270     0.7410 ho         1 B0Z       0.518000
     34 H9           4.7350    -0.4030    -1.9000 h1         1 B0Z       0.058700
     35 H10          5.3860    -2.7490    -1.4230 h1         1 B0Z       0.039700
     36 H11          4.0630    -2.9070    -0.2600 h1         1 B0Z       0.039700
     37 H12          3.5120    -3.8340    -2.2990 ho         1 B0Z       0.507000
     38 H13          4.8620    -0.9460     1.1290 h1         1 B0Z       0.060700
     39 H14          7.1300    -0.2160     0.6540 ho         1 B0Z       0.525000
     40 H15          5.5320     1.5650    -0.4940 h1         1 B0Z       0.051700
     41 H16          5.5780     2.4060     1.7640 ho         1 B0Z       0.455000
     42 C12         -6.1220    -1.2520     0.5690 c3         1 B0Z       0.357300
@<TRIPOS>BOND
     1     1    12 1   
     2     1    14 2   
     3     1    15 1   
     4     2     3 1   
     5     2    12 1   
     6     2    13 2   
     7     3     4 ar  
     8     3    10 ar  
     9     4    11 ar  
    10     4    26 1   
    11     5    42 1   
    12     6    42 1   
    13     7    42 1   
    14     8     9 ar  
    15     8    11 ar  
    16     8    42 1   
    17     9    10 ar  
    18     9    27 1   
    19    10    28 1   
    20    11    29 1   
    21    12    30 1   
    22    13    14 1   
    23    15    16 1   
    24    15    18 1   
    25    15    31 1   
    26    16    17 1   
    27    16    24 1   
    28    16    32 1   
    29    17    33 1   
    30    18    19 1   
    31    19    20 1   
    32    19    22 1   
    33    19    34 1   
    34    20    21 1   
    35    20    35 1   
    36    20    36 1   
    37    21    37 1   
    38    22    23 1   
    39    22    24 1   
    40    22    38 1   
    41    23    39 1   
    42    24    25 1   
    43    24    40 1   
    44    25    41 1   
@<TRIPOS>SUBSTRUCTURE
     1 B0Z         1 TEMP              0 ****  ****    0 ROOT
