@<TRIPOS>MOLECULE
B0Z
   42    44     1     0     0
SMALL
abcg2


@<TRIPOS>ATOM
      1 C1           1.3040     0.1280     0.4030 cc         1 B0Z       0.399800
      2 C4          -0.8370     0.0900     0.6390 cc         1 B0Z       0.432000
      3 C6          -2.2660     0.0320     0.3560 ca         1 B0Z      -0.091500
      4 C11         -2.7480    -0.0840    -0.9450 ca         1 B0Z      -0.094500
      5 F13         -6.9870     1.1490    -0.3930 f          1 B0Z      -0.112000
      6 F14         -7.1470    -0.7700     0.5610 f          1 B0Z      -0.112000
      7 F15         -6.7960    -0.6480    -1.5590 f          1 B0Z      -0.112000
      8 C9          -5.0070    -0.0830    -0.1330 ca         1 B0Z      -0.188300
      9 C8          -4.5340     0.0370     1.1710 ca         1 B0Z      -0.061000
     10 C7          -3.1750     0.0920     1.4130 ca         1 B0Z      -0.094500
     11 C10         -4.1100    -0.1400    -1.1900 ca         1 B0Z      -0.061000
     12 N5           0.1500     0.0320    -0.2860 na         1 B0Z      -0.477000
     13 N3          -0.2970     0.2110     1.8250 nd         1 B0Z      -0.350000
     14 N2           1.0430     0.2370     1.6760 nd         1 B0Z      -0.335000
     15 C13          2.6560     0.1180    -0.2240 c6         1 B0Z       0.152000
     16 C2           3.3900     1.4330     0.0320 c6         1 B0Z       0.113300
     17 O2           2.6240     2.4650    -0.5390 oh         1 B0Z      -0.722000
     18 O5           3.3800    -0.9560     0.3190 os         1 B0Z      -0.413000
     19 C5           4.6470    -1.1370    -0.2850 c6         1 B0Z       0.168300
     20 C15          5.2690    -2.3750     0.3240 c3         1 B0Z       0.172600
     21 O6           4.4670    -3.4870     0.0080 oh         1 B0Z      -0.712000
     22 C14          5.5110     0.1060    -0.0680 c6         1 B0Z       0.144300
     23 O4           6.7310    -0.0880    -0.7370 oh         1 B0Z      -0.717000
     24 C3           4.7800     1.3390    -0.5900 c6         1 B0Z       0.101300
     25 O3           5.5710     2.4660    -0.2860 oh         1 B0Z      -0.664000
     26 H1          -2.0740    -0.1300    -1.7900 ha         1 B0Z       0.130500
     27 H2          -5.2170     0.0860     2.0080 ha         1 B0Z       0.134000
     28 H3          -2.8170     0.1830     2.4290 ha         1 B0Z       0.130500
     29 H4          -4.4520    -0.2310    -2.2120 ha         1 B0Z       0.134000
     30 H5           0.0600    -0.0660    -1.2870 hn         1 B0Z       0.365000
     31 H6           2.5320    -0.0070    -1.3120 h1         1 B0Z       0.046700
     32 H7           3.4890     1.5630     1.1180 h1         1 B0Z       0.081700
     33 H8           2.8100     3.2840    -0.0730 ho         1 B0Z       0.518000
     34 H9           4.5220    -1.2920    -1.3700 h1         1 B0Z       0.058700
     35 H10          6.2850    -2.4830    -0.0720 h1         1 B0Z       0.039700
     36 H11          5.3590    -2.2310     1.4090 h1         1 B0Z       0.039700
     37 H12          4.8990    -4.2730     0.3540 ho         1 B0Z       0.507000
     38 H13          5.6690     0.2310     1.0160 h1         1 B0Z       0.060700
     39 H14          7.2570     0.7130    -0.6370 ho         1 B0Z       0.525000
     40 H15          4.6600     1.2290    -1.6790 h1         1 B0Z       0.051700
     41 H16          5.3540     3.1740    -0.8990 ho         1 B0Z       0.455000
     42 C12         -6.4820    -0.0950    -0.3840 c3         1 B0Z       0.357300
@<TRIPOS>BOND
     1     1    12 1   
     2     1    14 2   
     3     1    15 1   
     4     2     3 1   
     5     2    12 1   
     6     2    13 2   
     7     3     4 ar  
     8     3    10 ar  
     9     4    11 ar  
    10     4    26 1   
    11     5    42 1   
    12     6    42 1   
    13     7    42 1   
    14     8     9 ar  
    15     8    11 ar  
    16     8    42 1   
    17     9    10 ar  
    18     9    27 1   
    19    10    28 1   
    20    11    29 1   
    21    12    30 1   
    22    13    14 1   
    23    15    16 1   
    24    15    18 1   
    25    15    31 1   
    26    16    17 1   
    27    16    24 1   
    28    16    32 1   
    29    17    33 1   
    30    18    19 1   
    31    19    20 1   
    32    19    22 1   
    33    19    34 1   
    34    20    21 1   
    35    20    35 1   
    36    20    36 1   
    37    21    37 1   
    38    22    23 1   
    39    22    24 1   
    40    22    38 1   
    41    23    39 1   
    42    24    25 1   
    43    24    40 1   
    44    25    41 1   
@<TRIPOS>SUBSTRUCTURE
     1 B0Z         1 TEMP              0 ****  ****    0 ROOT
