@<TRIPOS>MOLECULE
B10
   83    87     1     0     0
SMALL
abcg2


@<TRIPOS>ATOM
      1 N1          -2.8460    -1.0040     0.3050 ns         1 B10      -0.177000
      2 C2          -3.9950    -0.2210     0.1570 ca         1 B10      -0.002000
      3 C10         -4.1590     0.6450    -0.9230 ca         1 B10      -0.122000
      4 C12         -5.3200     1.3890    -1.0700 ca         1 B10      -0.015300
      5 C55         -5.0210    -0.3720     1.0830 ca         1 B10       0.004100
      6 C18         -6.2100     0.3490     0.9280 ca         1 B10       0.284000
      7 C19         -6.3380     1.2390    -0.1290 ca         1 B10      -0.164000
      8 O3          -4.8940    -1.2340     2.1320 os         1 B10      -0.375100
      9 C13         -4.2040    -0.6820     3.2560 c3         1 B10       0.138900
     10 C14         -5.5270     2.3600    -2.2290 c3         1 B10      -0.001700
     11 C15         -4.3560     2.3570    -3.2110 c3         1 B10      -0.086433
     12 C16         -6.7960     1.9690    -3.0000 c3         1 B10      -0.086433
     13 C17         -5.6890     3.7800    -1.6700 c3         1 B10      -0.086433
     14 C24         -1.5680    -0.5320     0.1570 c          1 B10       0.657100
     15 O1          -1.3010     0.6290    -0.0890 o          1 B10      -0.598100
     16 N4          -0.6160    -1.4980     0.3220 ns         1 B10      -0.187000
     17 C25          0.7530    -1.2160     0.1320 ca         1 B10      -0.027000
     18 C4           1.4040    -1.6430    -1.0570 ca         1 B10      -0.043000
     19 C5           2.7890    -1.3640    -1.2310 ca         1 B10      -0.015000
     20 C6           3.4980    -0.6720    -0.2030 cp         1 B10      -0.020000
     21 C26          0.7010    -2.3170    -2.0830 ca         1 B10      -0.104000
     22 C27          1.3310    -2.6940    -3.2370 ca         1 B10      -0.100000
     23 C28          2.6940    -2.3990    -3.4250 ca         1 B10      -0.105000
     24 C29          3.4000    -1.7480    -2.4510 ca         1 B10      -0.097000
     25 C30          2.8160    -0.2570     0.9140 ca         1 B10      -0.091000
     26 C8           1.4490    -0.5270     1.0860 ca         1 B10      -0.087000
     27 C11          4.9420    -0.3820    -0.3040 cp         1 B10      -0.091000
     28 C1           5.4350     0.9090    -0.1190 ca         1 B10      -0.069000
     29 C33          6.7970     1.1350    -0.1790 ca         1 B10      -0.138000
     30 C7           7.6490     0.0640    -0.4380 ca         1 B10       0.345300
     31 N3           7.1900    -1.1720    -0.5990 nb         1 B10      -0.675000
     32 C9           5.8830    -1.3840    -0.5290 ca         1 B10       0.346900
     33 N2          -7.2190     0.1430     1.8870 nu         1 B10      -0.879100
     34 S1          -8.8430     0.1480     1.5280 s6         1 B10       1.201100
     35 O6          -9.4860    -0.4180     2.7010 o          1 B10      -0.527500
     36 O7          -9.2160     1.4830     1.0920 o          1 B10      -0.527500
     37 C23         -9.0410    -0.9620     0.1550 c3         1 B10      -0.379100
     38 C3           9.1340     0.2800    -0.5580 c3         1 B10       0.109500
     39 N5           9.6890     0.9120     0.6210 n3         1 B10      -0.714600
     40 C31         11.0520     1.3580     0.3880 c6         1 B10       0.123800
     41 C20          9.6440     0.0260     1.7720 c6         1 B10       0.123800
     42 C21         11.6100     2.0110     1.6370 c6         1 B10       0.152600
     43 C32         10.2440     0.7100     2.9850 c6         1 B10       0.152600
     44 O2          11.5660     1.1360     2.7420 os         1 B10      -0.448000
     45 HN1         -2.9740    -1.9270     0.6910 hn         1 B10       0.161000
     46 H10         -3.3650     0.7190    -1.6500 ha         1 B10       0.142000
     47 H19         -7.2390     1.8300    -0.2180 ha         1 B10       0.147000
     48 H13         -3.1760    -0.4160     3.0030 h1         1 B10       0.044033
     49 H13A        -4.7140     0.2050     3.6380 h1         1 B10       0.044033
     50 H13B        -4.1920    -1.4470     4.0280 h1         1 B10       0.044033
     51 H15         -4.2130     1.3790    -3.6740 hc         1 B10       0.039256
     52 H15A        -4.5540     3.0710    -4.0110 hc         1 B10       0.039256
     53 H15B        -3.4170     2.6490    -2.7380 hc         1 B10       0.039256
     54 H16         -7.6860     1.9940    -2.3700 hc         1 B10       0.039256
     55 H16A        -6.9600     2.6610    -3.8280 hc         1 B10       0.039256
     56 H16B        -6.7110     0.9620    -3.4130 hc         1 B10       0.039256
     57 H17         -4.7940     4.0950    -1.1310 hc         1 B10       0.039256
     58 H17A        -5.8580     4.4890    -2.4830 hc         1 B10       0.039256
     59 H17B        -6.5350     3.8570    -0.9850 hc         1 B10       0.039256
     60 HN4         -0.8990    -2.4670     0.3410 hn         1 B10       0.154000
     61 H26         -0.3520    -2.5290    -1.9560 ha         1 B10       0.109000
     62 H27          0.7780    -3.2060    -4.0140 ha         1 B10       0.115000
     63 H28          3.1820    -2.6790    -4.3490 ha         1 B10       0.117000
     64 H29          4.4380    -1.5070    -2.6270 ha         1 B10       0.122000
     65 H30          3.3450     0.2650     1.7020 ha         1 B10       0.121000
     66 H8           0.9510    -0.2060     1.9900 ha         1 B10       0.127000
     67 H1           4.7540     1.7320     0.0570 ha         1 B10       0.125000
     68 H33          7.2010     2.1280    -0.0380 ha         1 B10       0.137000
     69 H9           5.5600    -2.4140    -0.6440 h4         1 B10       0.024100
     70 HN2         -7.0000    -0.5740     2.5700 hn         1 B10       0.508000
     71 H23         -8.7110    -1.9550     0.4490 h1         1 B10       0.105367
     72 H23A       -10.1000    -0.9770    -0.1000 h1         1 B10       0.105367
     73 H23B        -8.4660    -0.6070    -0.6970 h1         1 B10       0.105367
     74 H3           9.6130    -0.6850    -0.7830 h1         1 B10       0.053700
     75 H3A          9.3240     0.9370    -1.4130 h1         1 B10       0.053700
     76 H31         11.7090     0.5240     0.0850 h1         1 B10       0.044700
     77 H31A        11.0590     2.0870    -0.4260 h1         1 B10       0.044700
     78 H20          8.6080    -0.2340     2.0010 h1         1 B10       0.044700
     79 H20A        10.1790    -0.9190     1.5730 h1         1 B10       0.044700
     80 H21         12.6530     2.2890     1.4780 h1         1 B10       0.050950
     81 H21A        11.0460     2.9300     1.8530 h1         1 B10       0.050950
     82 H32          9.6120     1.5630     3.2710 h1         1 B10       0.050950
     83 H32A        10.2720     0.0180     3.8280 h1         1 B10       0.050950
@<TRIPOS>BOND
     1     1     2 1   
     2     1    14 1   
     3     1    45 1   
     4     2     3 ar  
     5     2     5 ar  
     6     3     4 ar  
     7     3    46 1   
     8     4     7 ar  
     9     4    10 1   
    10     5     6 ar  
    11     5     8 1   
    12     6     7 ar  
    13     6    33 1   
    14     7    47 1   
    15     8     9 1   
    16     9    48 1   
    17     9    49 1   
    18     9    50 1   
    19    10    11 1   
    20    10    12 1   
    21    10    13 1   
    22    11    51 1   
    23    11    52 1   
    24    11    53 1   
    25    12    54 1   
    26    12    55 1   
    27    12    56 1   
    28    13    57 1   
    29    13    58 1   
    30    13    59 1   
    31    14    15 2   
    32    14    16 1   
    33    16    17 1   
    34    16    60 1   
    35    17    18 ar  
    36    17    26 ar  
    37    18    19 ar  
    38    18    21 ar  
    39    19    20 ar  
    40    19    24 ar  
    41    20    25 ar  
    42    20    27 1   
    43    21    22 ar  
    44    21    61 1   
    45    22    23 ar  
    46    22    62 1   
    47    23    24 ar  
    48    23    63 1   
    49    24    64 1   
    50    25    26 ar  
    51    25    65 1   
    52    26    66 1   
    53    27    28 ar  
    54    27    32 ar  
    55    28    29 ar  
    56    28    67 1   
    57    29    30 ar  
    58    29    68 1   
    59    30    31 ar  
    60    30    38 1   
    61    31    32 ar  
    62    32    69 1   
    63    33    34 1   
    64    33    70 1   
    65    34    35 2   
    66    34    36 2   
    67    34    37 1   
    68    37    71 1   
    69    37    72 1   
    70    37    73 1   
    71    38    39 1   
    72    38    74 1   
    73    38    75 1   
    74    39    40 1   
    75    39    41 1   
    76    40    42 1   
    77    40    76 1   
    78    40    77 1   
    79    41    43 1   
    80    41    78 1   
    81    41    79 1   
    82    42    44 1   
    83    42    80 1   
    84    42    81 1   
    85    43    44 1   
    86    43    82 1   
    87    43    83 1   
@<TRIPOS>SUBSTRUCTURE
     1 B10         1 TEMP              0 ****  ****    0 ROOT
