@<TRIPOS>MOLECULE
B10
   83    87     1     0     0
SMALL
No Charge or Current Charge


@<TRIPOS>ATOM
      1 N1          -2.8370    -0.4530    -0.0910 ns         1 B10      -0.177000
      2 C2          -4.1270     0.1480    -0.0670 ca         1 B10      -0.002000
      3 C10         -4.3590     1.4820    -0.4690 ca         1 B10      -0.122000
      4 C12         -5.6610     2.0400    -0.4580 ca         1 B10      -0.015300
      5 C55         -5.2190    -0.6460     0.3390 ca         1 B10       0.004100
      6 C18         -6.5280    -0.1190     0.3330 ca         1 B10       0.284000
      7 C19         -6.7330     1.2160    -0.0480 ca         1 B10      -0.164000
      8 O3          -5.0130    -1.9570     0.7280 os         1 B10      -0.375100
      9 C13         -4.5500    -2.2280     2.0630 c3         1 B10       0.138900
     10 C14         -5.9520     3.5060    -0.8850 c3         1 B10      -0.001700
     11 C15         -4.6780     4.2860    -1.3170 c3         1 B10      -0.086433
     12 C16         -6.9370     3.5040    -2.0850 c3         1 B10      -0.086433
     13 C17         -6.5920     4.2700     0.3060 c3         1 B10      -0.086433
     14 C24         -1.5610     0.0730    -0.2170 c          1 B10       0.657100
     15 O1          -1.3110     1.2690    -0.3030 o          1 B10      -0.598100
     16 N4          -0.6000    -0.9270    -0.2350 ns         1 B10      -0.187000
     17 C25          0.8250    -0.8820    -0.2860 ca         1 B10      -0.027000
     18 C4           1.5530    -2.0350    -0.6850 ca         1 B10      -0.043000
     19 C5           2.9760    -2.0040    -0.7220 ca         1 B10      -0.015000
     20 C6           3.6780    -0.8240    -0.3420 cp         1 B10      -0.020000
     21 C26          0.8780    -3.2220    -1.0630 ca         1 B10      -0.104000
     22 C27          1.5940    -4.3550    -1.4780 ca         1 B10      -0.100000
     23 C28          2.9910    -4.3180    -1.5320 ca         1 B10      -0.105000
     24 C29          3.6770    -3.1520    -1.1610 ca         1 B10      -0.097000
     25 C30          2.9300     0.3080     0.0450 ca         1 B10      -0.091000
     26 C8           1.5310     0.2820     0.0780 ca         1 B10      -0.087000
     27 C11          5.1680    -0.7310    -0.3150 cp         1 B10      -0.091000
     28 C1           5.8510     0.2430    -1.0770 ca         1 B10      -0.069000
     29 C33          7.2520     0.3080    -1.0000 ca         1 B10      -0.138000
     30 C7           7.9420    -0.5870    -0.1610 ca         1 B10       0.345300
     31 N3           7.3020    -1.5210     0.5870 nb         1 B10      -0.675000
     32 C9           5.9510    -1.5790     0.5090 ca         1 B10       0.346900
     33 N2          -7.5810    -0.9470     0.7200 nu         1 B10      -0.879100
     34 S1          -9.0760    -1.0830     0.0210 s6         1 B10       1.201100
     35 O6          -9.6190    -2.3370     0.5420 o          1 B10      -0.527500
     36 O7          -9.7730     0.1840     0.2510 o          1 B10      -0.527500
     37 C23         -8.7490    -1.2800    -1.7170 c3         1 B10      -0.379100
     38 C3           9.4760    -0.5330    -0.0600 c3         1 B10       0.109500
     39 N5          10.0470     0.7940     0.3170 n3         1 B10      -0.714600
     40 C31         11.5410     0.8280     0.2300 c6         1 B10       0.123800
     41 C20          9.5850     1.2790     1.6570 c6         1 B10       0.123800
     42 C21         12.1090     2.2280     0.6120 c6         1 B10       0.152600
     43 C32         10.1960     2.6680     2.0100 c6         1 B10       0.152600
     44 O2          11.6400     2.6190     1.9250 os         1 B10      -0.448000
     45 HN1         -2.8660    -1.4600    -0.0010 hn         1 B10       0.161000
     46 H10         -3.5210     2.0790    -0.8040 ha         1 B10       0.142000
     47 H19         -7.7360     1.6240    -0.0220 ha         1 B10       0.147000
     48 H13         -3.5780    -1.7540     2.2460 h1         1 B10       0.044033
     49 H13A        -5.2630    -1.8470     2.8050 h1         1 B10       0.044033
     50 H13B        -4.4390    -3.3090     2.2170 h1         1 B10       0.044033
     51 H15         -4.1970     3.8110    -2.1810 hc         1 B10       0.039256
     52 H15A        -4.9270     5.3140    -1.6060 hc         1 B10       0.039256
     53 H15B        -3.9500     4.3420    -0.4980 hc         1 B10       0.039256
     54 H16         -7.9020     3.0570    -1.8200 hc         1 B10       0.039256
     55 H16A        -7.1340     4.5250    -2.4340 hc         1 B10       0.039256
     56 H16B        -6.5210     2.9340    -2.9250 hc         1 B10       0.039256
     57 H17         -5.9290     4.2490     1.1800 hc         1 B10       0.039256
     58 H17A        -6.7770     5.3190     0.0460 hc         1 B10       0.039256
     59 H17B        -7.5520     3.8310     0.6020 hc         1 B10       0.039256
     60 HN4         -0.9760    -1.8650    -0.1920 hn         1 B10       0.154000
     61 H26         -0.2060    -3.2860    -1.0500 ha         1 B10       0.109000
     62 H27          1.0620    -5.2590    -1.7680 ha         1 B10       0.115000
     63 H28          3.5460    -5.1930    -1.8650 ha         1 B10       0.117000
     64 H29          4.7600    -3.1540    -1.2350 ha         1 B10       0.122000
     65 H30          3.4490     1.2150     0.3440 ha         1 B10       0.121000
     66 H8           1.0120     1.1740     0.4140 ha         1 B10       0.127000
     67 H1           5.3020     0.9300    -1.7170 ha         1 B10       0.125000
     68 H33          7.8030     1.0450    -1.5770 ha         1 B10       0.137000
     69 H9           5.4700    -2.3330     1.1310 h4         1 B10       0.024100
     70 HN2         -7.3100    -1.9040     0.9000 hn         1 B10       0.508000
     71 H23         -8.1180    -2.1660    -1.8380 h1         1 B10       0.105367
     72 H23A        -9.7140    -1.4070    -2.2180 h1         1 B10       0.105367
     73 H23B        -8.2390    -0.3760    -2.0630 h1         1 B10       0.105367
     74 H3           9.8090    -1.2950     0.6580 h1         1 B10       0.053700
     75 H3A          9.8720    -0.8350    -1.0390 h1         1 B10       0.053700
     76 H31         11.9800     0.0760     0.9020 h1         1 B10       0.044700
     77 H31A        11.8700     0.5810    -0.7900 h1         1 B10       0.044700
     78 H20          8.4890     1.3640     1.6810 h1         1 B10       0.044700
     79 H20A         9.8690     0.5610     2.4410 h1         1 B10       0.044700
     80 H21         13.2080     2.1980     0.6150 h1         1 B10       0.050950
     81 H21A        11.7890     2.9770    -0.1270 h1         1 B10       0.050950
     82 H32          9.8160     3.4320     1.3160 h1         1 B10       0.050950
     83 H32A         9.9040     2.9570     3.0290 h1         1 B10       0.050950
@<TRIPOS>BOND
     1     1     2 1   
     2     1    14 1   
     3     1    45 1   
     4     2     3 ar  
     5     2     5 ar  
     6     3     4 ar  
     7     3    46 1   
     8     4     7 ar  
     9     4    10 1   
    10     5     6 ar  
    11     5     8 1   
    12     6     7 ar  
    13     6    33 1   
    14     7    47 1   
    15     8     9 1   
    16     9    48 1   
    17     9    49 1   
    18     9    50 1   
    19    10    11 1   
    20    10    12 1   
    21    10    13 1   
    22    11    51 1   
    23    11    52 1   
    24    11    53 1   
    25    12    54 1   
    26    12    55 1   
    27    12    56 1   
    28    13    57 1   
    29    13    58 1   
    30    13    59 1   
    31    14    15 2   
    32    14    16 1   
    33    16    17 1   
    34    16    60 1   
    35    17    18 ar  
    36    17    26 ar  
    37    18    19 ar  
    38    18    21 ar  
    39    19    20 ar  
    40    19    24 ar  
    41    20    25 ar  
    42    20    27 1   
    43    21    22 ar  
    44    21    61 1   
    45    22    23 ar  
    46    22    62 1   
    47    23    24 ar  
    48    23    63 1   
    49    24    64 1   
    50    25    26 ar  
    51    25    65 1   
    52    26    66 1   
    53    27    28 ar  
    54    27    32 ar  
    55    28    29 ar  
    56    28    67 1   
    57    29    30 ar  
    58    29    68 1   
    59    30    31 ar  
    60    30    38 1   
    61    31    32 ar  
    62    32    69 1   
    63    33    34 1   
    64    33    70 1   
    65    34    35 2   
    66    34    36 2   
    67    34    37 1   
    68    37    71 1   
    69    37    72 1   
    70    37    73 1   
    71    38    39 1   
    72    38    74 1   
    73    38    75 1   
    74    39    40 1   
    75    39    41 1   
    76    40    42 1   
    77    40    76 1   
    78    40    77 1   
    79    41    43 1   
    80    41    78 1   
    81    41    79 1   
    82    42    44 1   
    83    42    80 1   
    84    42    81 1   
    85    43    44 1   
    86    43    82 1   
    87    43    83 1   
@<TRIPOS>SUBSTRUCTURE
     1 B10         1 TEMP              0 ****  ****    0 ROOT
