@<TRIPOS>MOLECULE
B11
   59    62     1     0     0
SMALL
abcg2


@<TRIPOS>ATOM
      1 C1           4.3450    -3.4580    -0.4220 ca         1 B11      -0.205000
      2 C2           3.9460    -4.3220     0.5880 ca         1 B11      -0.064000
      3 C3           3.2930    -3.8320     1.7080 ca         1 B11      -0.148000
      4 C4           3.0370    -2.4690     1.8000 ca         1 B11      -0.065000
      5 C5           3.4230    -1.5810     0.8020 ca         1 B11      -0.119300
      6 C6           4.0910    -2.0940    -0.3150 ca         1 B11       0.139100
      7 O7           4.4680    -1.2170    -1.2700 oh         1 B11      -0.545100
      8 C8           3.1220    -0.1120     0.9190 c3         1 B11       0.219100
      9 N9           2.0580     0.3010     0.0120 n7         1 B11      -0.869400
     10 C10          1.7250     1.7120     0.1150 c6         1 B11       0.180500
     11 C11          0.9220     2.1380    -1.1070 c6         1 B11      -0.098400
     12 C12          0.4970     3.5960    -1.0180 c6         1 B11       0.234800
     13 N13         -0.2040     3.8590     0.2360 n3         1 B11      -0.827500
     14 C14          0.4970     3.4530     1.4510 c6         1 B11       0.234800
     15 C15          0.9020     1.9910     1.3690 c6         1 B11      -0.098400
     16 S16         -1.6510     4.5860     0.2270 s6         1 B11       1.302200
     17 N17         -2.7680     3.4830    -0.3630 nu         1 B11      -0.882100
     18 O18         -2.0040     4.8770     1.6030 o          1 B11      -0.545500
     19 O19         -1.6760     5.6510    -0.7580 o          1 B11      -0.545500
     20 C20         -2.7090     2.1380     0.0530 ca         1 B11       0.287000
     21 C21         -2.5340     1.1470    -0.9060 ca         1 B11      -0.175000
     22 C22         -2.4660    -0.1830    -0.5210 ca         1 B11       0.150100
     23 C23         -2.5590    -0.5400     0.8190 ca         1 B11      -0.172000
     24 C24         -2.7350     0.4610     1.7620 ca         1 B11      -0.065000
     25 C25         -2.8210     1.7960     1.3970 ca         1 B11      -0.150000
     26 O26         -2.3340    -1.0960    -1.5240 os         1 B11      -0.254200
     27 C27         -1.6010    -2.2350    -1.3160 ca         1 B11       0.088100
     28 C28         -2.1640    -3.4410    -1.7110 ca         1 B11      -0.108500
     29 C29         -1.4350    -4.6160    -1.5950 ca         1 B11      -0.136000
     30 C30         -0.1590    -4.5560    -1.0710 ca         1 B11       0.154000
     31 C31          0.4130    -3.3640    -0.6700 ca         1 B11      -0.136000
     32 C32         -0.3130    -2.1890    -0.7950 ca         1 B11      -0.108500
     33 F1           0.5510    -5.6910    -0.9490 f          1 B11      -0.180000
     34 H1           4.8540    -3.8470    -1.2970 ha         1 B11       0.116000
     35 H2           4.1490    -5.3810     0.4910 ha         1 B11       0.118000
     36 H3           2.9800    -4.4990     2.5000 ha         1 B11       0.121000
     37 H4           2.5240    -2.0790     2.6710 ha         1 B11       0.117000
     38 HO7          4.9250    -1.6730    -1.9870 ho         1 B11       0.468000
     39 H81          2.8030     0.0850     1.9440 h1         1 B11       0.039200
     40 H82          4.0410     0.4760     0.7690 h1         1 B11       0.039200
     41 HN9          2.3540     0.1090    -0.9380 hn         1 B11       0.422000
     42 H10          2.6360     2.3370     0.1560 h1         1 B11       0.023700
     43 H111         1.5150     2.0090    -2.0170 hc         1 B11       0.057700
     44 H112         0.0400     1.4980    -1.1890 hc         1 B11       0.057700
     45 H121         1.3750     4.2480    -1.0660 h1         1 B11       0.057950
     46 H122        -0.1350     3.8550    -1.8660 h1         1 B11       0.057950
     47 H141         1.3840     4.0850     1.5640 h1         1 B11       0.057950
     48 H142        -0.1340     3.6230     2.3180 h1         1 B11       0.057950
     49 H151         0.0110     1.3570     1.3540 hc         1 B11       0.057700
     50 H152         1.4630     1.7480     2.2750 hc         1 B11       0.057700
     51 H17         -2.9170     3.6090    -1.3580 hn         1 B11       0.491000
     52 H21         -2.4330     1.4070    -1.9530 ha         1 B11       0.128000
     53 H23         -2.5090    -1.5760     1.1270 ha         1 B11       0.131000
     54 H24         -2.8230     0.1920     2.8060 ha         1 B11       0.120000
     55 H25         -2.9800     2.5530     2.1520 ha         1 B11       0.147000
     56 H28         -3.1670    -3.4630    -2.1170 ha         1 B11       0.144000
     57 H29         -1.8620    -5.5610    -1.9010 ha         1 B11       0.138500
     58 H31          1.4160    -3.3460    -0.2650 ha         1 B11       0.138500
     59 H32          0.1490    -1.2550    -0.4880 ha         1 B11       0.144000
@<TRIPOS>BOND
     1     1     2 ar  
     2     1     6 ar  
     3     1    34 1   
     4     2     3 ar  
     5     2    35 1   
     6     3     4 ar  
     7     3    36 1   
     8     4     5 ar  
     9     4    37 1   
    10     5     6 ar  
    11     5     8 1   
    12     6     7 1   
    13     7    38 1   
    14     8     9 1   
    15     8    39 1   
    16     8    40 1   
    17     9    10 1   
    18     9    41 1   
    19    10    11 1   
    20    10    15 1   
    21    10    42 1   
    22    11    12 1   
    23    11    43 1   
    24    11    44 1   
    25    12    13 1   
    26    12    45 1   
    27    12    46 1   
    28    13    14 1   
    29    13    16 1   
    30    14    15 1   
    31    14    47 1   
    32    14    48 1   
    33    15    49 1   
    34    15    50 1   
    35    16    17 1   
    36    16    18 2   
    37    16    19 2   
    38    17    20 1   
    39    17    51 1   
    40    20    21 ar  
    41    20    25 ar  
    42    21    22 ar  
    43    21    52 1   
    44    22    23 ar  
    45    22    26 1   
    46    23    24 ar  
    47    23    53 1   
    48    24    25 ar  
    49    24    54 1   
    50    25    55 1   
    51    26    27 1   
    52    27    28 ar  
    53    27    32 ar  
    54    28    29 ar  
    55    28    56 1   
    56    29    30 ar  
    57    29    57 1   
    58    30    31 ar  
    59    30    33 1   
    60    31    32 ar  
    61    31    58 1   
    62    32    59 1   
@<TRIPOS>SUBSTRUCTURE
     1 B11         1 TEMP              0 ****  ****    0 ROOT
