@<TRIPOS>MOLECULE
B11
   59    62     1     0     0
SMALL
No Charge or Current Charge


@<TRIPOS>ATOM
      1 C1           6.1000    -3.4290    -0.3840 ca         1 B11      -0.205000
      2 C2           5.3970    -4.5050     0.1830 ca         1 B11      -0.064000
      3 C3           4.2250    -4.2630     0.9170 ca         1 B11      -0.148000
      4 C4           3.7580    -2.9490     1.0850 ca         1 B11      -0.065000
      5 C5           4.4570    -1.8620     0.5200 ca         1 B11      -0.119300
      6 C6           5.6360    -2.1130    -0.2200 ca         1 B11       0.139100
      7 O7           6.3410    -1.0910    -0.7870 oh         1 B11      -0.545100
      8 C8           3.9170    -0.4510     0.7260 c3         1 B11       0.219100
      9 N9           2.7370    -0.2330    -0.1300 n7         1 B11      -0.869400
     10 C10          2.0930     1.0960    -0.0990 c6         1 B11       0.180500
     11 C11          1.0230     1.1810    -1.2080 c6         1 B11      -0.098400
     12 C12          0.2830     2.5340    -1.1610 c6         1 B11       0.234800
     13 N13         -0.3360     2.7610     0.1700 n3         1 B11      -0.827500
     14 C14          0.6860     2.7450     1.2440 c6         1 B11       0.234800
     15 C15          1.4420     1.3980     1.2720 c6         1 B11      -0.098400
     16 S16         -1.4020     4.0870     0.2390 s6         1 B11       1.302200
     17 N17         -2.7340     3.4830    -0.5080 nu         1 B11      -0.882100
     18 O18         -1.7770     4.3120     1.6350 o          1 B11      -0.545500
     19 O19         -0.8650     5.1600    -0.5950 o          1 B11      -0.545500
     20 C20         -3.4800     2.4420     0.0170 ca         1 B11       0.287000
     21 C21         -3.3200     1.1430    -0.4860 ca         1 B11      -0.175000
     22 C22         -4.0680     0.0830     0.0550 ca         1 B11       0.150100
     23 C23         -5.0040     0.3270     1.0710 ca         1 B11      -0.172000
     24 C24         -5.1770     1.6290     1.5690 ca         1 B11      -0.065000
     25 C25         -4.4100     2.6830     1.0420 ca         1 B11      -0.150000
     26 O26         -3.9090    -1.2000    -0.4150 os         1 B11      -0.254200
     27 C27         -2.6750    -1.7950    -0.5600 ca         1 B11       0.088100
     28 C28         -2.5180    -2.7900    -1.5420 ca         1 B11      -0.108500
     29 C29         -1.2770    -3.4350    -1.7020 ca         1 B11      -0.136000
     30 C30         -0.1980    -3.0900    -0.8720 ca         1 B11       0.154000
     31 C31         -0.3510    -2.1060     0.1180 ca         1 B11      -0.136000
     32 C32         -1.5900    -1.4560     0.2770 ca         1 B11      -0.108500
     33 F1           0.9900    -3.7130    -1.0240 f          1 B11      -0.180000
     34 H1           7.0060    -3.6270    -0.9520 ha         1 B11       0.116000
     35 H2           5.7580    -5.5240     0.0530 ha         1 B11       0.118000
     36 H3           3.6770    -5.0940     1.3550 ha         1 B11       0.121000
     37 H4           2.8470    -2.7710     1.6520 ha         1 B11       0.117000
     38 HO7          7.1150    -1.4720    -1.2530 ho         1 B11       0.468000
     39 H81          3.6520    -0.3340     1.7860 h1         1 B11       0.039200
     40 H82          4.6940     0.2940     0.5070 h1         1 B11       0.039200
     41 HN9          3.0380    -0.4190    -1.0920 hn         1 B11       0.422000
     42 H10          2.8580     1.8600    -0.3020 h1         1 B11       0.023700
     43 H111         1.4890     1.0530    -2.1940 hc         1 B11       0.057700
     44 H112         0.2940     0.3690    -1.0950 hc         1 B11       0.057700
     45 H121         0.9920     3.3410    -1.4010 h1         1 B11       0.057950
     46 H122        -0.4780     2.5300    -1.9550 h1         1 B11       0.057950
     47 H141         1.4060     3.5660     1.1070 h1         1 B11       0.057950
     48 H142         0.2210     2.8850     2.2310 h1         1 B11       0.057950
     49 H151         0.7420     0.5960     1.5400 hc         1 B11       0.057700
     50 H152         2.2030     1.4320     2.0610 hc         1 B11       0.057700
     51 H17         -2.3370     3.2760    -1.4080 hn         1 B11       0.491000
     52 H21         -2.6040     0.9490    -1.2790 ha         1 B11       0.128000
     53 H23         -5.5890    -0.4950     1.4770 ha         1 B11       0.131000
     54 H24         -5.8990     1.8210     2.3610 ha         1 B11       0.120000
     55 H25         -4.5410     3.6910     1.4250 ha         1 B11       0.147000
     56 H28         -3.3580    -3.0580    -2.1780 ha         1 B11       0.144000
     57 H29         -1.1520    -4.2020    -2.4620 ha         1 B11       0.138500
     58 H31          0.4900    -1.8470     0.7550 ha         1 B11       0.138500
     59 H32         -1.7010    -0.6990     1.0500 ha         1 B11       0.144000
@<TRIPOS>BOND
     1     1     2 ar  
     2     1     6 ar  
     3     1    34 1   
     4     2     3 ar  
     5     2    35 1   
     6     3     4 ar  
     7     3    36 1   
     8     4     5 ar  
     9     4    37 1   
    10     5     6 ar  
    11     5     8 1   
    12     6     7 1   
    13     7    38 1   
    14     8     9 1   
    15     8    39 1   
    16     8    40 1   
    17     9    10 1   
    18     9    41 1   
    19    10    11 1   
    20    10    15 1   
    21    10    42 1   
    22    11    12 1   
    23    11    43 1   
    24    11    44 1   
    25    12    13 1   
    26    12    45 1   
    27    12    46 1   
    28    13    14 1   
    29    13    16 1   
    30    14    15 1   
    31    14    47 1   
    32    14    48 1   
    33    15    49 1   
    34    15    50 1   
    35    16    17 1   
    36    16    18 2   
    37    16    19 2   
    38    17    20 1   
    39    17    51 1   
    40    20    21 ar  
    41    20    25 ar  
    42    21    22 ar  
    43    21    52 1   
    44    22    23 ar  
    45    22    26 1   
    46    23    24 ar  
    47    23    53 1   
    48    24    25 ar  
    49    24    54 1   
    50    25    55 1   
    51    26    27 1   
    52    27    28 ar  
    53    27    32 ar  
    54    28    29 ar  
    55    28    56 1   
    56    29    30 ar  
    57    29    57 1   
    58    30    31 ar  
    59    30    33 1   
    60    31    32 ar  
    61    31    58 1   
    62    32    59 1   
@<TRIPOS>SUBSTRUCTURE
     1 B11         1 TEMP              0 ****  ****    0 ROOT
