@<TRIPOS>MOLECULE
B14
   44    47     1     0     0
SMALL
abcg2


@<TRIPOS>ATOM
      1 C1          -4.2860    -1.9470     0.3840 ca         1 B14       0.070000
      2 C2          -5.6030    -1.7920     0.0350 ca         1 B14      -0.060000
      3 C3          -6.1000    -0.5200    -0.2300 ca         1 B14      -0.189000
      4 C4          -5.2480     0.5540    -0.1100 ca         1 B14       0.231000
      5 C4A         -3.9120     0.4290     0.2620 ca         1 B14      -0.297900
      6 C5          -2.9500     1.5220     0.5100 ce         1 B14       0.723800
      7 N6          -1.6890     1.3140     0.5990 n2         1 B14      -0.722900
      8 C7          -1.1720    -0.0020     0.3330 c6         1 B14       0.446400
      9 N8          -2.1000    -1.0120     0.8270 nu         1 B14      -0.944200
     10 C8A         -3.4100    -0.8650     0.4880 ca         1 B14       0.328000
     11 F9          -5.7450     1.7720    -0.3750 f          1 B14      -0.170000
     12 F10         -3.7910    -3.1760     0.6230 f          1 B14      -0.179000
     13 C11         -0.9050    -0.1780    -1.1740 c6         1 B14      -0.108900
     14 C12          0.1810     0.7690    -1.6590 c6         1 B14       0.105000
     15 N13          1.4030     0.5860    -0.8880 n          1 B14      -0.398800
     16 C14          1.2200     0.7810     0.5440 c6         1 B14       0.105000
     17 C15          0.1500    -0.1590     1.0840 c6         1 B14      -0.108900
     18 C16          2.4790     0.0170    -1.4550 c          1 B14       0.614700
     19 O17          2.5120    -0.4030    -2.6040 o          1 B14      -0.588100
     20 N18         -3.4190     2.7910     0.6540 nv         1 B14      -1.012200
     21 C19          3.7380    -0.0650    -0.6460 ca         1 B14      -0.180600
     22 C20          4.3690    -1.3000    -0.5010 ca         1 B14       0.377900
     23 N21          5.5320    -1.4520     0.1040 nb         1 B14      -0.638000
     24 C22          6.1300    -0.3590     0.5690 ca         1 B14       0.443000
     25 C23          5.6080     0.9210     0.4660 ca         1 B14      -0.130000
     26 C24          4.3770     1.0630    -0.1540 ca         1 B14      -0.051000
     27 C25          7.4010    -0.5630     1.2110 cg         1 B14       0.217000
     28 N26          8.4140    -0.7200     1.7330 n1         1 B14      -0.426000
     29 H2          -6.2440    -2.6590    -0.0510 ha         1 B14       0.138000
     30 H3          -7.1290    -0.3750    -0.5260 ha         1 B14       0.142000
     31 HN8         -1.7460    -1.9560     0.8540 hn         1 B14       0.489000
     32 H111        -0.5970    -1.2100    -1.3660 hc         1 B14       0.058700
     33 H112        -1.8210    -0.0010    -1.7440 hc         1 B14       0.058700
     34 H121         0.3910     0.6050    -2.7120 h1         1 B14       0.067450
     35 H122        -0.1410     1.8070    -1.5450 h1         1 B14       0.067450
     36 H141         2.1500     0.6040     1.0770 h1         1 B14       0.067450
     37 H142         0.9320     1.8180     0.7240 h1         1 B14       0.067450
     38 H151        -0.0080     0.0500     2.1430 hc         1 B14       0.058700
     39 H152         0.5020    -1.1920     0.9990 hc         1 B14       0.058700
     40 H181        -2.7410     3.4520     0.9990 hn         1 B14       0.477000
     41 H182        -4.3490     2.9390     1.0040 hn         1 B14       0.477000
     42 H20          3.9040    -2.2010    -0.8830 h4         1 B14       0.040100
     43 H23          6.1440     1.7740     0.8550 ha         1 B14       0.140000
     44 H24          3.9330     2.0450    -0.2560 ha         1 B14       0.134000
@<TRIPOS>BOND
     1     1     2 ar  
     2     1    10 ar  
     3     1    12 1   
     4     2     3 ar  
     5     2    29 1   
     6     3     4 ar  
     7     3    30 1   
     8     4     5 ar  
     9     4    11 1   
    10     5     6 1   
    11     5    10 ar  
    12     6     7 2   
    13     6    20 1   
    14     7     8 1   
    15     8     9 1   
    16     8    13 1   
    17     8    17 1   
    18     9    10 1   
    19     9    31 1   
    20    13    14 1   
    21    13    32 1   
    22    13    33 1   
    23    14    15 1   
    24    14    34 1   
    25    14    35 1   
    26    15    16 1   
    27    15    18 1   
    28    16    17 1   
    29    16    36 1   
    30    16    37 1   
    31    17    38 1   
    32    17    39 1   
    33    18    19 2   
    34    18    21 1   
    35    20    40 1   
    36    20    41 1   
    37    21    22 ar  
    38    21    26 ar  
    39    22    23 ar  
    40    22    42 1   
    41    23    24 ar  
    42    24    25 ar  
    43    24    27 1   
    44    25    26 ar  
    45    25    43 1   
    46    26    44 1   
    47    27    28 3   
@<TRIPOS>SUBSTRUCTURE
     1 B14         1 TEMP              0 ****  ****    0 ROOT
