@<TRIPOS>MOLECULE
B14
   44    47     1     0     0
SMALL
No Charge or Current Charge


@<TRIPOS>ATOM
      1 C1          -4.4370    -1.9290     0.3750 ca         1 B14       0.070000
      2 C2          -5.8030    -1.7260     0.1310 ca         1 B14      -0.060000
      3 C3          -6.2830    -0.4180    -0.0440 ca         1 B14      -0.189000
      4 C4          -5.4070     0.6780     0.0250 ca         1 B14       0.231000
      5 C4A         -4.0280     0.4810     0.2730 ca         1 B14      -0.297900
      6 C5          -3.0060     1.5500     0.3730 ce         1 B14       0.723800
      7 N6          -1.7740     1.3070     0.6020 n2         1 B14      -0.722900
      8 C7          -1.2180    -0.0020     0.2860 c6         1 B14       0.446400
      9 N8          -2.1970    -0.9880     0.6710 nu         1 B14      -0.944200
     10 C8A         -3.5580    -0.8240     0.4430 ca         1 B14       0.328000
     11 F9          -5.9300     1.9110    -0.1510 f          1 B14      -0.170000
     12 F10         -3.9730    -3.1930     0.5370 f          1 B14      -0.179000
     13 C11         -0.9090    -0.1600    -1.2250 c6         1 B14      -0.108900
     14 C12          0.2610     0.7550    -1.6530 c6         1 B14       0.105000
     15 N13          1.4830     0.5070    -0.8400 n          1 B14      -0.398800
     16 C14          1.2380     0.6420     0.6250 c6         1 B14       0.105000
     17 C15          0.0750    -0.2640     1.0940 c6         1 B14      -0.108900
     18 C16          2.5700    -0.2320    -1.3610 c          1 B14       0.614700
     19 O17          2.4660    -0.8400    -2.4180 o          1 B14      -0.588100
     20 N18         -3.4060     2.8390     0.3830 nv         1 B14      -1.012200
     21 C19          3.8940    -0.1710    -0.6540 ca         1 B14      -0.180600
     22 C20          4.7740    -1.2590    -0.7840 ca         1 B14       0.377900
     23 N21          5.9990    -1.2990    -0.2100 nb         1 B14      -0.638000
     24 C22          6.4020    -0.2220     0.5120 ca         1 B14       0.443000
     25 C23          5.5970     0.9220     0.6710 ca         1 B14      -0.130000
     26 C24          4.3260     0.9570     0.0760 ca         1 B14      -0.051000
     27 C25          7.7150    -0.2790     1.1170 cg         1 B14       0.217000
     28 N26          8.7750    -0.3140     1.6110 n1         1 B14      -0.426000
     29 H2          -6.4800    -2.5760     0.0780 ha         1 B14       0.138000
     30 H3          -7.3410    -0.2490    -0.2340 ha         1 B14       0.142000
     31 HN8         -1.8830    -1.9530     0.7610 hn         1 B14       0.489000
     32 H111        -0.6430    -1.2020    -1.4450 hc         1 B14       0.058700
     33 H112        -1.7970     0.0670    -1.8290 hc         1 B14       0.058700
     34 H121         0.4700     0.6080    -2.7230 h1         1 B14       0.067450
     35 H122        -0.0360     1.8070    -1.5330 h1         1 B14       0.067450
     36 H141         2.1300     0.3720     1.2050 h1         1 B14       0.067450
     37 H142         1.0060     1.6920     0.8540 h1         1 B14       0.067450
     38 H151        -0.1080    -0.1090     2.1650 hc         1 B14       0.058700
     39 H152         0.3800    -1.3130     0.9790 hc         1 B14       0.058700
     40 H181        -2.7520     3.4630     0.8360 hn         1 B14       0.477000
     41 H182        -4.3880     2.9920     0.5690 hn         1 B14       0.477000
     42 H20          4.4900    -2.1430    -1.3560 h4         1 B14       0.040100
     43 H23          5.9610     1.7720     1.2430 ha         1 B14       0.140000
     44 H24          3.7070     1.8480     0.1660 ha         1 B14       0.134000
@<TRIPOS>BOND
     1     1     2 ar  
     2     1    10 ar  
     3     1    12 1   
     4     2     3 ar  
     5     2    29 1   
     6     3     4 ar  
     7     3    30 1   
     8     4     5 ar  
     9     4    11 1   
    10     5     6 1   
    11     5    10 ar  
    12     6     7 2   
    13     6    20 1   
    14     7     8 1   
    15     8     9 1   
    16     8    13 1   
    17     8    17 1   
    18     9    10 1   
    19     9    31 1   
    20    13    14 1   
    21    13    32 1   
    22    13    33 1   
    23    14    15 1   
    24    14    34 1   
    25    14    35 1   
    26    15    16 1   
    27    15    18 1   
    28    16    17 1   
    29    16    36 1   
    30    16    37 1   
    31    17    38 1   
    32    17    39 1   
    33    18    19 2   
    34    18    21 1   
    35    20    40 1   
    36    20    41 1   
    37    21    22 ar  
    38    21    26 ar  
    39    22    23 ar  
    40    22    42 1   
    41    23    24 ar  
    42    24    25 ar  
    43    24    27 1   
    44    25    26 ar  
    45    25    43 1   
    46    26    44 1   
    47    27    28 3   
@<TRIPOS>SUBSTRUCTURE
     1 B14         1 TEMP              0 ****  ****    0 ROOT
