@<TRIPOS>MOLECULE
B18
   55    58     1     0     0
SMALL
bcc


@<TRIPOS>ATOM
      1 C01          1.5730    -0.0870    -0.3090 ca         1 B18      -0.192600
      2 C02          2.8520    -0.5860    -0.1130 ca         1 B18       0.003000
      3 C03          3.9240     0.3010    -0.0460 ca         1 B18      -0.118800
      4 C04          3.6920     1.6920    -0.1930 ca         1 B18      -0.012200
      5 C05          2.4090     2.2000    -0.4060 ca         1 B18      -0.151000
      6 C06          1.3680     1.3030    -0.4630 ca         1 B18      -0.078000
      7 C07          5.3250     0.1410     0.1590 cc         1 B18      -0.084400
      8 C08          5.8600     1.3950     0.1230 cd         1 B18      -0.141300
      9 N09          4.8830     2.3290    -0.0920 na         1 B18      -0.125400
     10 C10          6.2000    -1.0630     0.2930 c6         1 B18      -0.004500
     11 C11          7.4540    -0.6280     1.0530 c6         1 B18       0.109000
     12 N12          8.0260     0.5990     0.5150 ns         1 B18      -0.561900
     13 C13          7.2940     1.6870     0.2040 c          1 B18       0.736700
     14 O14          7.7590     2.7950    -0.0300 o          1 B18      -0.639500
     15 C15          0.4680    -1.0680    -0.3670 c          1 B18       0.694700
     16 O16          0.6480    -2.2630    -0.5370 o          1 B18      -0.583100
     17 N17         -0.7990    -0.5860    -0.2050 ns         1 B18      -0.534400
     18 C18         -1.9260    -1.3640    -0.2530 cc         1 B18       0.536300
     19 S19         -1.8920    -3.0760    -0.5300 ss         1 B18      -0.058300
     20 C20         -3.6050    -3.0840    -0.4210 cc         1 B18      -0.187400
     21 C21         -4.0640    -1.8300    -0.1840 cd         1 B18       0.306800
     22 N22         -3.1040    -0.8600    -0.0900 nd         1 B18      -0.721000
     23 C23         -5.5030    -1.4940    -0.0310 c          1 B18       0.601600
     24 N24         -5.7480    -0.2010     0.2130 ns         1 B18      -0.561900
     25 O25         -6.3670    -2.3550    -0.1290 o          1 B18      -0.607100
     26 C26         -7.0730     0.3370     0.4220 c3         1 B18       0.101000
     27 C27         -7.0980     1.8110     0.0380 c3         1 B18       0.148800
     28 N28         -8.3770     2.4280     0.3210 n3         1 B18      -0.713600
     29 C29         -8.2810     3.8720     0.2860 c3         1 B18       0.149600
     30 C30         -9.4270     1.9660    -0.5630 c3         1 B18       0.149600
     31 C31          6.5200    -1.6640    -1.0760 c3         1 B18      -0.086100
     32 H02          3.0130    -1.6500     0.0020 ha         1 B18       0.159000
     33 H05          2.2340     3.2600    -0.5340 ha         1 B18       0.143000
     34 H06          0.3810     1.6980    -0.6600 ha         1 B18       0.130000
     35 HN09         5.0330     3.3240    -0.1510 hn         1 B18       0.323700
     36 H10          5.7020    -1.8210     0.9020 hc         1 B18       0.068700
     37 H111         7.2060    -0.4930     2.1110 h1         1 B18       0.049200
     38 H112         8.2190    -1.4010     0.9940 h1         1 B18       0.049200
     39 HN12         9.0190     0.7410     0.6310 hn         1 B18       0.323500
     40 HN17        -0.9630     0.3870     0.0070 hn         1 B18       0.341500
     41 H20         -4.1730    -3.9940    -0.5310 h4         1 B18       0.197000
     42 HN24        -4.9540     0.4110     0.3320 hn         1 B18       0.333500
     43 H261        -7.7760    -0.2390    -0.1790 h1         1 B18       0.059700
     44 H262        -7.3770     0.2320     1.4680 h1         1 B18       0.059700
     45 H271        -6.3360     2.3320     0.6270 h1         1 B18       0.033700
     46 H272        -6.8060     1.9210    -1.0210 h1         1 B18       0.033700
     47 H291        -8.0050     4.2680    -0.7040 h1         1 B18       0.031867
     48 H292        -9.2400     4.3140     0.5610 h1         1 B18       0.031867
     49 H293        -7.5370     4.2180     1.0040 h1         1 B18       0.031867
     50 H301        -9.5670     0.8880    -0.4800 h1         1 B18       0.031867
     51 H302       -10.3710     2.4360    -0.2880 h1         1 B18       0.031867
     52 H303        -9.2330     2.1990    -1.6220 h1         1 B18       0.031867
     53 H311         7.0570    -0.9520    -1.7030 hc         1 B18       0.043367
     54 H312         7.1360    -2.5580    -0.9700 hc         1 B18       0.043367
     55 H313         5.6080    -1.9500    -1.6010 hc         1 B18       0.043367
@<TRIPOS>BOND
     1     1     2 ar  
     2     1     6 ar  
     3     1    15 1   
     4     2     3 ar  
     5     2    32 1   
     6     3     4 ar  
     7     3     7 1   
     8     4     5 ar  
     9     4     9 1   
    10     5     6 ar  
    11     5    33 1   
    12     6    34 1   
    13     7     8 2   
    14     7    10 1   
    15     8     9 1   
    16     8    13 1   
    17     9    35 1   
    18    10    11 1   
    19    10    31 1   
    20    10    36 1   
    21    11    12 1   
    22    11    37 1   
    23    11    38 1   
    24    12    13 1   
    25    12    39 1   
    26    13    14 2   
    27    15    16 2   
    28    15    17 1   
    29    17    18 1   
    30    17    40 1   
    31    18    19 1   
    32    18    22 2   
    33    19    20 1   
    34    20    21 2   
    35    20    41 1   
    36    21    22 1   
    37    21    23 1   
    38    23    24 1   
    39    23    25 2   
    40    24    26 1   
    41    24    42 1   
    42    26    27 1   
    43    26    43 1   
    44    26    44 1   
    45    27    28 1   
    46    27    45 1   
    47    27    46 1   
    48    28    29 1   
    49    28    30 1   
    50    29    47 1   
    51    29    48 1   
    52    29    49 1   
    53    30    50 1   
    54    30    51 1   
    55    30    52 1   
    56    31    53 1   
    57    31    54 1   
    58    31    55 1   
@<TRIPOS>SUBSTRUCTURE
     1 B18         1 TEMP              0 ****  ****    0 ROOT
