@<TRIPOS>MOLECULE
B18
   55    58     1     0     0
SMALL
No Charge or Current Charge


@<TRIPOS>ATOM
      1 C01          1.7860    -0.2030     0.2040 ca         1 B18      -0.192600
      2 C02          3.1200    -0.6480     0.0170 ca         1 B18       0.021000
      3 C03          4.1700     0.2010     0.3900 ca         1 B18      -0.118800
      4 C04          3.9490     1.4380     0.9220 ca         1 B18      -0.012200
      5 C05          2.6510     1.9180     1.1230 ca         1 B18      -0.133000
      6 C06          1.5650     1.0910     0.7630 ca         1 B18      -0.060000
      7 C07          5.5890     0.0070     0.3090 cc         1 B18      -0.084400
      8 C08          6.1640     1.1720     0.8050 cd         1 B18      -0.141300
      9 N09          5.1450     2.0780     1.1940 na         1 B18      -0.175700
     10 C10          6.4060    -1.0990    -0.3070 c6         1 B18      -0.004500
     11 C11          7.8610    -1.0660     0.2380 c6         1 B18       0.109000
     12 N12          8.3840     0.2920     0.4850 ns         1 B18      -0.494900
     13 C13          7.6330     1.3910     0.8370 c          1 B18       0.594200
     14 O14          8.1590     2.4440     1.1600 o          1 B18      -0.564000
     15 C15          0.6510    -1.1200    -0.1970 c          1 B18       0.627700
     16 O16          0.8620    -2.2250    -0.6740 o          1 B18      -0.583100
     17 N17         -0.6170    -0.6410     0.0040 ns         1 B18      -0.467400
     18 C18         -1.8170    -1.2410    -0.2620 cc         1 B18       0.536300
     19 S19         -2.0750    -2.8310    -0.9500 ss         1 B18       0.086600
     20 C20         -3.7840    -2.5310    -0.8290 cc         1 B18      -0.249000
     21 C21         -4.0520    -1.2880    -0.2930 cd         1 B18       0.241500
     22 N22         -2.9030    -0.5510     0.0320 nd         1 B18      -0.721000
     23 C23         -5.4840    -0.8370    -0.1050 c          1 B18       0.534600
     24 N24         -5.5730     0.4270     0.4420 ns         1 B18      -0.494900
     25 O25         -6.4770    -1.4960    -0.3940 o          1 B18      -0.607100
     26 C26         -6.8240     1.1470     0.7140 c3         1 B18       0.101000
     27 C27         -7.5270     1.6470    -0.5750 c3         1 B18       0.148800
     28 N28         -8.7210     2.5080    -0.3520 n3         1 B18      -0.713600
     29 C29         -9.2000     3.1310    -1.6070 c3         1 B18       0.149600
     30 C30         -9.8170     1.8260     0.3790 c3         1 B18       0.149600
     31 C31          6.3680    -0.9820    -1.8530 c3         1 B18      -0.086100
     32 H02          3.3370    -1.6270    -0.4050 ha         1 B18       0.141000
     33 H05          2.4800     2.9050     1.5470 ha         1 B18       0.125000
     34 H06          0.5610     1.4760     0.9240 ha         1 B18       0.112000
     35 HN09         5.2710     3.0110     1.5750 hn         1 B18       0.374000
     36 H10          5.9670    -2.0760    -0.0620 hc         1 B18       0.068700
     37 H111         7.8850    -1.5990     1.2000 h1         1 B18       0.049200
     38 H112         8.5390    -1.5980    -0.4440 h1         1 B18       0.049200
     39 HN12         9.3880     0.4280     0.4910 hn         1 B18       0.323500
     40 HN17        -0.6730     0.2810     0.4020 hn         1 B18       0.341500
     41 H20         -4.4850    -3.2860    -1.1590 h4         1 B18       0.179000
     42 HN24        -4.6860     0.8800     0.6440 hn         1 B18       0.333500
     43 H261        -7.4960     0.4810     1.2700 h1         1 B18       0.059700
     44 H262        -6.5960     2.0090     1.3540 h1         1 B18       0.059700
     45 H271        -6.7820     2.2130    -1.1520 h1         1 B18       0.033700
     46 H272        -7.8060     0.7770    -1.1840 h1         1 B18       0.033700
     47 H291        -9.5530     2.3670    -2.3140 h1         1 B18       0.031867
     48 H292       -10.0280     3.8230    -1.4060 h1         1 B18       0.031867
     49 H293        -8.3950     3.7010    -2.0900 h1         1 B18       0.031867
     50 H301        -9.4880     1.4970     1.3720 h1         1 B18       0.031867
     51 H302       -10.6670     2.5070     0.5230 h1         1 B18       0.031867
     52 H303       -10.1720     0.9480    -0.1770 h1         1 B18       0.031867
     53 H311         6.8000    -0.0320    -2.1900 hc         1 B18       0.043367
     54 H312         6.9310    -1.7940    -2.3280 hc         1 B18       0.043367
     55 H313         5.3380    -1.0310    -2.2280 hc         1 B18       0.043367
@<TRIPOS>BOND
     1     1     2 ar  
     2     1     6 ar  
     3     1    15 1   
     4     2     3 ar  
     5     2    32 1   
     6     3     4 ar  
     7     3     7 1   
     8     4     5 ar  
     9     4     9 1   
    10     5     6 ar  
    11     5    33 1   
    12     6    34 1   
    13     7     8 2   
    14     7    10 1   
    15     8     9 1   
    16     8    13 1   
    17     9    35 1   
    18    10    11 1   
    19    10    31 1   
    20    10    36 1   
    21    11    12 1   
    22    11    37 1   
    23    11    38 1   
    24    12    13 1   
    25    12    39 1   
    26    13    14 2   
    27    15    16 2   
    28    15    17 1   
    29    17    18 1   
    30    17    40 1   
    31    18    19 1   
    32    18    22 2   
    33    19    20 1   
    34    20    21 2   
    35    20    41 1   
    36    21    22 1   
    37    21    23 1   
    38    23    24 1   
    39    23    25 2   
    40    24    26 1   
    41    24    42 1   
    42    26    27 1   
    43    26    43 1   
    44    26    44 1   
    45    27    28 1   
    46    27    45 1   
    47    27    46 1   
    48    28    29 1   
    49    28    30 1   
    50    29    47 1   
    51    29    48 1   
    52    29    49 1   
    53    30    50 1   
    54    30    51 1   
    55    30    52 1   
    56    31    53 1   
    57    31    54 1   
    58    31    55 1   
@<TRIPOS>SUBSTRUCTURE
     1 B18         1 TEMP              0 ****  ****    0 ROOT
