@<TRIPOS>MOLECULE
B19
   44    46     1     0     0
SMALL
No Charge or Current Charge


@<TRIPOS>ATOM
      1 C11         -1.1890    -2.9730     1.1130 c3         1 B19      -0.109100
      2 C10          0.0620    -2.4000     0.4140 c5         1 B19       0.398000
      3 C12          0.9640    -3.5370    -0.1120 c3         1 B19      -0.109100
      4 O3          -0.3160    -1.5580    -0.6940 os         1 B19      -0.481000
      5 O4           0.7870    -1.5630     1.3520 os         1 B19      -0.461000
      6 C3           1.0970    -0.2940     0.7140 c5         1 B19       0.096300
      7 C4           2.5330    -0.4640     0.0610 c5         1 B19       0.128300
      8 O5           3.4530     0.1980     0.9750 os         1 B19      -0.469000
      9 C7           3.7290     1.5270     0.4710 c5         1 B19       0.390000
     10 C8           5.1960     1.5990    -0.0140 c3         1 B19      -0.105600
     11 C9           3.4340     2.5790     1.5560 c3         1 B19      -0.105600
     12 O6           2.8240     1.7130    -0.6320 os         1 B19      -0.458000
     13 C5           2.6520     0.4060    -1.2080 c5         1 B19       0.106300
     14 C6           1.4660     0.3130    -2.1780 c6         1 B19       0.164600
     15 O2           0.2230     0.5690    -1.5110 os         1 B19      -0.426000
     16 C2          -0.0870    -0.1880    -0.3130 c5         1 B19       0.379000
     17 C1          -1.3780     0.4370     0.3240 c3         1 B19       0.223800
     18 N2          -2.5760     0.3750    -0.5610 n7         1 B19      -0.871300
     19 S1          -3.9050     1.2160    -0.1420 s6         1 B19       1.256200
     20 O7          -4.8490     1.1000    -1.2420 o          1 B19      -0.551000
     21 O8          -3.5040     2.4920     0.4340 o          1 B19      -0.551000
     22 N1          -4.4550     0.2520     1.0110 n8         1 B19      -1.042100
     23 H111        -1.8570    -3.4510     0.3880 hc         1 B19       0.054033
     24 H112        -0.9080    -3.7290     1.8560 hc         1 B19       0.054033
     25 H113        -1.7600    -2.2000     1.6360 hc         1 B19       0.054033
     26 H121         1.6600    -3.1830    -0.8800 hc         1 B19       0.054033
     27 H122         1.5480    -3.9850     0.7000 hc         1 B19       0.054033
     28 H123         0.3640    -4.3340    -0.5680 hc         1 B19       0.054033
     29 H3           1.0730     0.5150     1.4540 h1         1 B19       0.098700
     30 H4           2.8340    -1.5060    -0.0980 h1         1 B19       0.091700
     31 H81          5.8880     1.5660     0.8350 hc         1 B19       0.050533
     32 H82          5.4510     0.7650    -0.6770 hc         1 B19       0.050533
     33 H83          5.3820     2.5330    -0.5570 hc         1 B19       0.050533
     34 H91          3.6400     3.5900     1.1870 hc         1 B19       0.050533
     35 H92          2.3840     2.5420     1.8660 hc         1 B19       0.050533
     36 H93          4.0540     2.4120     2.4440 hc         1 B19       0.050533
     37 H5           3.5590     0.1420    -1.7690 h1         1 B19       0.060700
     38 H61          1.5910     1.0360    -2.9960 h1         1 B19       0.071700
     39 H62          1.4300    -0.6930    -2.6220 h1         1 B19       0.071700
     40 H11         -1.5780    -0.0510     1.2860 h1         1 B19       0.067700
     41 H12         -1.1300     1.4810     0.5600 h1         1 B19       0.067700
     42 HN2         -2.3390     0.8420    -1.4350 hn         1 B19       0.498000
     43 HN11        -5.3990     0.0930     0.6740 hn         1 B19       0.471000
     44 HN12        -3.9500    -0.5870     0.7430 hn         1 B19       0.471000
@<TRIPOS>BOND
     1     1     2 1   
     2     1    23 1   
     3     1    24 1   
     4     1    25 1   
     5     2     3 1   
     6     2     4 1   
     7     2     5 1   
     8     3    26 1   
     9     3    27 1   
    10     3    28 1   
    11     4    16 1   
    12     5     6 1   
    13     6     7 1   
    14     6    16 1   
    15     6    29 1   
    16     7     8 1   
    17     7    13 1   
    18     7    30 1   
    19     8     9 1   
    20     9    10 1   
    21     9    11 1   
    22     9    12 1   
    23    10    31 1   
    24    10    32 1   
    25    10    33 1   
    26    11    34 1   
    27    11    35 1   
    28    11    36 1   
    29    12    13 1   
    30    13    14 1   
    31    13    37 1   
    32    14    15 1   
    33    14    38 1   
    34    14    39 1   
    35    15    16 1   
    36    16    17 1   
    37    17    18 1   
    38    17    40 1   
    39    17    41 1   
    40    18    19 1   
    41    18    42 1   
    42    19    20 2   
    43    19    21 2   
    44    19    22 1   
    45    22    43 1   
    46    22    44 1   
@<TRIPOS>SUBSTRUCTURE
     1 B19         1 TEMP              0 ****  ****    0 ROOT
