@<TRIPOS>MOLECULE
B19
   44    46     1     0     0
SMALL
abcg2


@<TRIPOS>ATOM
      1 C11         -1.1890    -3.2120     0.6920 c3         1 B19      -0.109100
      2 C10          0.0280    -2.5330     0.0910 c5         1 B19       0.398000
      3 C12          0.9170    -3.5240    -0.6430 c3         1 B19      -0.109100
      4 O3          -0.3690    -1.5150    -0.8100 os         1 B19      -0.481000
      5 O4           0.7330    -1.8690     1.1280 os         1 B19      -0.461000
      6 C3           1.0880    -0.5740     0.7120 c5         1 B19       0.096300
      7 C4           2.5480    -0.4940     0.2090 c5         1 B19       0.128300
      8 O5           3.3520     0.2320     1.1110 os         1 B19      -0.469000
      9 C7           3.6050     1.5360     0.5930 c5         1 B19       0.390000
     10 C8           5.1050     1.7060     0.4030 c3         1 B19      -0.105600
     11 C9           3.0230     2.5900     1.5160 c3         1 B19      -0.105600
     12 O6           2.9270     1.5910    -0.6410 os         1 B19      -0.458000
     13 C5           2.7440     0.2700    -1.0970 c5         1 B19       0.106300
     14 C6           1.5660     0.1990    -2.0320 c6         1 B19       0.164600
     15 O2           0.3730     0.5640    -1.3720 os         1 B19      -0.426000
     16 C2          -0.0090    -0.2500    -0.3240 c5         1 B19       0.379000
     17 C1          -1.1920     0.4520     0.3420 c3         1 B19       0.223800
     18 N2          -2.2970     0.5560    -0.5890 n7         1 B19      -0.871300
     19 S1          -3.8370     0.4920    -0.0460 s6         1 B19       1.256200
     20 O7          -4.0220    -0.7300     0.7130 o          1 B19      -0.551000
     21 O8          -4.6690     0.7350    -1.2110 o          1 B19      -0.551000
     22 N1          -3.9230     1.7100     1.0700 n8         1 B19      -1.042100
     23 H111        -1.7610    -3.7230    -0.0830 hc         1 B19       0.054033
     24 H112        -0.8850    -3.9590     1.4260 hc         1 B19       0.054033
     25 H113        -1.8470    -2.4950     1.1820 hc         1 B19       0.054033
     26 H121         1.7900    -3.0390    -1.0810 hc         1 B19       0.054033
     27 H122         1.2660    -4.3010     0.0370 hc         1 B19       0.054033
     28 H123         0.3620    -4.0080    -1.4470 hc         1 B19       0.054033
     29 H3           0.9970     0.0900     1.5770 h1         1 B19       0.098700
     30 H4           2.9440    -1.5100     0.1290 h1         1 B19       0.091700
     31 H81          5.6320     1.5670     1.3470 hc         1 B19       0.050533
     32 H82          5.5020     0.9850    -0.3140 hc         1 B19       0.050533
     33 H83          5.3310     2.7090     0.0400 hc         1 B19       0.050533
     34 H91          3.2220     3.5910     1.1320 hc         1 B19       0.050533
     35 H92          1.9430     2.4700     1.6170 hc         1 B19       0.050533
     36 H93          3.4720     2.5190     2.5060 hc         1 B19       0.050533
     37 H5           3.6330    -0.1050    -1.6230 h1         1 B19       0.060700
     38 H61          1.6900     0.8960    -2.8600 h1         1 B19       0.071700
     39 H62          1.5040    -0.8070    -2.4600 h1         1 B19       0.071700
     40 H11         -1.5020    -0.1240     1.2140 h1         1 B19       0.067700
     41 H12         -0.8740     1.4340     0.7030 h1         1 B19       0.067700
     42 HN2         -2.1730     1.2320    -1.3330 hn         1 B19       0.498000
     43 HN11        -3.9170     2.6310     0.6440 hn         1 B19       0.471000
     44 HN12        -4.7340     1.6120     1.6730 hn         1 B19       0.471000
@<TRIPOS>BOND
     1     1     2 1   
     2     1    23 1   
     3     1    24 1   
     4     1    25 1   
     5     2     3 1   
     6     2     4 1   
     7     2     5 1   
     8     3    26 1   
     9     3    27 1   
    10     3    28 1   
    11     4    16 1   
    12     5     6 1   
    13     6     7 1   
    14     6    16 1   
    15     6    29 1   
    16     7     8 1   
    17     7    13 1   
    18     7    30 1   
    19     8     9 1   
    20     9    10 1   
    21     9    11 1   
    22     9    12 1   
    23    10    31 1   
    24    10    32 1   
    25    10    33 1   
    26    11    34 1   
    27    11    35 1   
    28    11    36 1   
    29    12    13 1   
    30    13    14 1   
    31    13    37 1   
    32    14    15 1   
    33    14    38 1   
    34    14    39 1   
    35    15    16 1   
    36    16    17 1   
    37    17    18 1   
    38    17    40 1   
    39    17    41 1   
    40    18    19 1   
    41    18    42 1   
    42    19    20 2   
    43    19    21 2   
    44    19    22 1   
    45    22    43 1   
    46    22    44 1   
@<TRIPOS>SUBSTRUCTURE
     1 B19         1 TEMP              0 ****  ****    0 ROOT
