@<TRIPOS>MOLECULE
B1A
   31    32     1     0     0
SMALL
No Charge or Current Charge


@<TRIPOS>ATOM
      1 N1          -3.7080     0.4500     0.3050 ns         1 B1A      -0.144000
      2 C4          -1.9560    -1.2310    -0.2890 ca         1 B1A      -0.118000
      3 C5          -0.5920    -1.5730    -0.3530 ca         1 B1A      -0.133500
      4 C6           0.3960    -0.6670     0.0650 ca         1 B1A       0.289000
      5 C7           0.0030     0.5820     0.5770 ca         1 B1A      -0.133500
      6 C8          -1.3590     0.9290     0.6430 ca         1 B1A      -0.118000
      7 C10          2.9950     0.9700    -0.5910 ca         1 B1A      -0.176000
      8 C13          5.3520    -0.2760     0.2890 ca         1 B1A      -0.072500
      9 C2          -4.9070    -0.1580    -0.0490 c          1 B1A       0.607100
     10 O1          -5.0020    -1.2670    -0.5620 o          1 B1A      -0.587100
     11 C3          -2.3510     0.0310     0.2080 ca         1 B1A      -0.051000
     12 C9           2.9390    -0.3350    -0.0670 ca         1 B1A       0.327000
     13 C11          4.2210     1.6560    -0.6630 ca         1 B1A      -0.072500
     14 C12          5.3990     1.0330    -0.2190 ca         1 B1A      -0.153000
     15 C14          4.1240    -0.9580     0.3580 ca         1 B1A      -0.176000
     16 H1          -3.8210     1.3700     0.7120 hn         1 B1A       0.148000
     17 H2          -2.6830    -1.9610    -0.6280 ha         1 B1A       0.128500
     18 H3          -0.3040    -2.5480    -0.7380 ha         1 B1A       0.120000
     19 H4           0.7470     1.2830     0.9430 ha         1 B1A       0.120000
     20 H5          -1.6410     1.9020     1.0420 ha         1 B1A       0.128500
     21 H7           6.2660    -0.7620     0.6270 ha         1 B1A       0.110000
     22 H12          4.2570     2.6650    -1.0680 ha         1 B1A       0.110000
     23 H13          6.3480     1.5610    -0.2740 ha         1 B1A       0.114000
     24 H14          4.0960    -1.9700     0.7520 ha         1 B1A       0.115500
     25 N2           1.7400    -1.0470     0.0010 nu         1 B1A      -0.995000
     26 C1          -6.1430     0.6840     0.2540 c3         1 B1A      -0.181100
     27 H6           2.0960     1.4510    -0.9620 ha         1 B1A       0.115500
     28 H8          -6.1390     0.9540     1.3170 hc         1 B1A       0.062700
     29 H9          -6.0380     1.6600    -0.2330 hc         1 B1A       0.062700
     30 H10         -7.0750     0.1860    -0.0340 hc         1 B1A       0.062700
     31 H11          1.8760    -2.0590     0.0070 hn         1 B1A       0.492000
@<TRIPOS>BOND
     1     1     9 1   
     2     1    11 1   
     3     1    16 1   
     4     2     3 ar  
     5     2    11 ar  
     6     2    17 1   
     7     3     4 ar  
     8     3    18 1   
     9     4     5 ar  
    10     4    25 1   
    11     5     6 ar  
    12     5    19 1   
    13     6    11 ar  
    14     6    20 1   
    15     7    12 ar  
    16     7    13 ar  
    17     7    27 1   
    18     8    14 ar  
    19     8    15 ar  
    20     8    21 1   
    21     9    10 2   
    22     9    26 1   
    23    12    15 ar  
    24    12    25 1   
    25    13    14 ar  
    26    13    22 1   
    27    14    23 1   
    28    15    24 1   
    29    25    31 1   
    30    26    28 1   
    31    26    29 1   
    32    26    30 1   
@<TRIPOS>SUBSTRUCTURE
     1 B1A         1 TEMP              0 ****  ****    0 ROOT
