@<TRIPOS>MOLECULE
B1A
   31    32     1     0     0
SMALL
abcg2


@<TRIPOS>ATOM
      1 N1          -3.6270     0.4960     0.3310 ns         1 B1A      -0.144000
      2 C4          -1.9200    -1.1790    -0.3210 ca         1 B1A      -0.118000
      3 C5          -0.5790    -1.5280    -0.3630 ca         1 B1A      -0.133500
      4 C6           0.4150    -0.7100     0.1730 ca         1 B1A       0.289000
      5 C7           0.0170     0.4890     0.7690 ca         1 B1A      -0.133500
      6 C8          -1.3160     0.8530     0.7920 ca         1 B1A      -0.118000
      7 C10          2.8650     0.9450    -0.4590 ca         1 B1A      -0.176000
      8 C13          5.2940    -0.2590     0.1310 ca         1 B1A      -0.072500
      9 C2          -4.7680    -0.0640    -0.1380 c          1 B1A       0.607100
     10 O1          -4.8110    -1.1280    -0.7330 o          1 B1A      -0.587100
     11 C3          -2.3070     0.0330     0.2500 ca         1 B1A      -0.051000
     12 C9           2.8780    -0.3760     0.0030 ca         1 B1A       0.327000
     13 C11          4.0530     1.6470    -0.6050 ca         1 B1A      -0.072500
     14 C12          5.2760     1.0590    -0.3120 ca         1 B1A      -0.153000
     15 C14          4.1150    -0.9670     0.2940 ca         1 B1A      -0.176000
     16 H1          -3.7320     1.3770     0.8100 hn         1 B1A       0.148000
     17 H2          -2.6470    -1.8500    -0.7460 ha         1 B1A       0.128500
     18 H3          -0.3010    -2.4680    -0.8270 ha         1 B1A       0.120000
     19 H4           0.7430     1.1420     1.2350 ha         1 B1A       0.120000
     20 H5          -1.5920     1.7920     1.2580 ha         1 B1A       0.128500
     21 H7           6.2350    -0.7420     0.3610 ha         1 B1A       0.110000
     22 H12          4.0150     2.6670    -0.9670 ha         1 B1A       0.110000
     23 H13          6.1970     1.6130    -0.4330 ha         1 B1A       0.114000
     24 H14          4.1450    -1.9890     0.6530 ha         1 B1A       0.115500
     25 N2           1.7360    -1.1390     0.1540 nu         1 B1A      -0.995000
     26 C1          -6.0130     0.7450     0.1280 c3         1 B1A      -0.181100
     27 H6           1.9340     1.4250    -0.7270 ha         1 B1A       0.115500
     28 H8          -5.8350     1.6540     0.7000 hc         1 B1A       0.062700
     29 H9          -6.4700     1.0220    -0.8220 hc         1 B1A       0.062700
     30 H10         -6.7330     0.1330     0.6700 hc         1 B1A       0.062700
     31 H11          1.8690    -2.1370     0.1110 hn         1 B1A       0.492000
@<TRIPOS>BOND
     1     1     9 1   
     2     1    11 1   
     3     1    16 1   
     4     2     3 ar  
     5     2    11 ar  
     6     2    17 1   
     7     3     4 ar  
     8     3    18 1   
     9     4     5 ar  
    10     4    25 1   
    11     5     6 ar  
    12     5    19 1   
    13     6    11 ar  
    14     6    20 1   
    15     7    12 ar  
    16     7    13 ar  
    17     7    27 1   
    18     8    14 ar  
    19     8    15 ar  
    20     8    21 1   
    21     9    10 2   
    22     9    26 1   
    23    12    15 ar  
    24    12    25 1   
    25    13    14 ar  
    26    13    22 1   
    27    14    23 1   
    28    15    24 1   
    29    25    31 1   
    30    26    28 1   
    31    26    29 1   
    32    26    30 1   
@<TRIPOS>SUBSTRUCTURE
     1 B1A         1 TEMP              0 ****  ****    0 ROOT
