@<TRIPOS>MOLECULE
B1B
   41    41     1     0     0
SMALL
abcg2


@<TRIPOS>ATOM
      1 CL1          1.7480    -1.6770    -0.1120 cl         1 B1B      -0.175000
      2 CG1          3.1720    -0.6900    -0.0660 ca         1 B1B       0.132000
      3 CD1          4.2470    -1.0500    -0.8630 ca         1 B1B      -0.107000
      4 C3           5.4040    -0.2840    -0.8390 ca         1 B1B      -0.095000
      5 C4           5.4770     0.8320    -0.0190 ca         1 B1B      -0.114000
      6 CG2          4.3890     1.1770     0.7700 ca         1 B1B      -0.096000
      7 CB           3.2170     0.4270     0.7670 ca         1 B1B      -0.114300
      8 CA           2.0590     0.8360     1.6410 c3         1 B1B       0.164300
      9 N            0.9080     1.2340     0.8700 ns         1 B1B      -0.518900
     10 C8          -0.3150     0.6650     1.0060 c          1 B1B       0.652100
     11 O           -0.5910    -0.1510     1.8750 o          1 B1B      -0.640100
     12 N2          -1.2510     1.1100     0.1120 ns         1 B1B      -0.485900
     13 C9          -2.5070     0.4180     0.0130 c3         1 B1B       0.038700
     14 C10         -3.4420     1.1550    -0.9480 c3         1 B1B      -0.082400
     15 C11         -3.7950     2.5850    -0.5340 c3         1 B1B      -0.056700
     16 C12         -4.7150     3.2020    -1.5830 c3         1 B1B      -0.091100
     17 C13         -4.4390     2.6410     0.8480 c3         1 B1B      -0.091100
     18 C14         -2.3070    -1.0100    -0.4970 c          1 B1B       0.581100
     19 O2          -1.5070    -1.2900    -1.3680 o          1 B1B      -0.574100
     20 N3          -3.1170    -1.9040     0.0970 ns         1 B1B      -0.378400
     21 O3          -3.2500    -3.1570    -0.4220 oh         1 B1B      -0.428100
     22 H1           4.1830    -1.9240    -1.4980 ha         1 B1B       0.131000
     23 H2           6.2430    -0.5650    -1.4610 ha         1 B1B       0.118000
     24 H3           6.3760     1.4340     0.0070 ha         1 B1B       0.118000
     25 H4           4.4440     2.0520     1.4070 ha         1 B1B       0.114000
     26 H5           1.7650     0.0140     2.2920 h1         1 B1B       0.067700
     27 H6           2.3840     1.6530     2.2900 h1         1 B1B       0.067700
     28 H7           1.0480     1.9390     0.1650 hn         1 B1B       0.311500
     29 H8          -0.9150     1.5290    -0.7430 hn         1 B1B       0.307500
     30 H9          -2.9700     0.3850     1.0020 h1         1 B1B       0.084700
     31 H10         -2.9900     1.1650    -1.9460 hc         1 B1B       0.054700
     32 H11         -4.3660     0.5760    -1.0340 hc         1 B1B       0.054700
     33 H12         -2.8750     3.1780    -0.5070 hc         1 B1B       0.051700
     34 H13         -4.9640     4.2330    -1.3290 hc         1 B1B       0.035200
     35 H14         -4.2490     3.2060    -2.5700 hc         1 B1B       0.035200
     36 H15         -5.6520     2.6440    -1.6620 hc         1 B1B       0.035200
     37 H16         -3.7490     2.3390     1.6380 hc         1 B1B       0.035200
     38 H17         -4.7690     3.6540     1.0810 hc         1 B1B       0.035200
     39 H18         -5.3120     1.9860     0.9000 hc         1 B1B       0.035200
     40 H19         -3.8460    -1.6330     0.7420 hn         1 B1B       0.337500
     41 H20         -2.6610    -3.7250     0.0910 ho         1 B1B       0.449000
@<TRIPOS>BOND
     1     1     2 1   
     2     2     3 ar  
     3     2     7 ar  
     4     3     4 ar  
     5     3    22 1   
     6     4     5 ar  
     7     4    23 1   
     8     5     6 ar  
     9     5    24 1   
    10     6     7 ar  
    11     6    25 1   
    12     7     8 1   
    13     8     9 1   
    14     8    26 1   
    15     8    27 1   
    16     9    10 1   
    17     9    28 1   
    18    10    11 2   
    19    10    12 1   
    20    12    13 1   
    21    12    29 1   
    22    13    14 1   
    23    13    18 1   
    24    13    30 1   
    25    14    15 1   
    26    14    31 1   
    27    14    32 1   
    28    15    16 1   
    29    15    17 1   
    30    15    33 1   
    31    16    34 1   
    32    16    35 1   
    33    16    36 1   
    34    17    37 1   
    35    17    38 1   
    36    17    39 1   
    37    18    19 2   
    38    18    20 1   
    39    20    21 1   
    40    20    40 1   
    41    21    41 1   
@<TRIPOS>SUBSTRUCTURE
     1 B1B         1 TEMP              0 ****  ****    0 ROOT
