@<TRIPOS>MOLECULE
B1B
   41    41     1     0     0
SMALL
No Charge or Current Charge


@<TRIPOS>ATOM
      1 Cl1          3.2930    -1.9790     1.3120 cl         1 B1B      -0.175000
      2 CG1          3.9760    -0.5090     0.6170 ca         1 B1B       0.132000
      3 CD1          5.2330    -0.5840    -0.0090 ca         1 B1B      -0.107000
      4 C3           5.8080     0.5630    -0.5810 ca         1 B1B      -0.095000
      5 C4           5.1240     1.7880    -0.5290 ca         1 B1B      -0.114000
      6 CG2          3.8670     1.8670     0.0950 ca         1 B1B      -0.096000
      7 CB           3.2830     0.7220     0.6750 ca         1 B1B      -0.114300
      8 CA           1.9200     0.8360     1.3450 c3         1 B1B       0.164300
      9 N            0.8480     0.4300     0.4390 ns         1 B1B      -0.518900
     10 C8          -0.4670     0.3660     0.7960 c          1 B1B       0.652100
     11 O           -0.8720     0.6440     1.9110 o          1 B1B      -0.640100
     12 N2          -1.2720    -0.0480    -0.2300 ns         1 B1B      -0.485900
     13 C9          -2.7450    -0.1930    -0.1560 c3         1 B1B       0.038700
     14 C10         -3.4520     1.0090    -0.8480 c3         1 B1B      -0.082400
     15 C11         -3.2450     2.3980    -0.1800 c3         1 B1B      -0.056700
     16 C12         -3.7880     3.5300    -1.0830 c3         1 B1B      -0.091100
     17 C13         -3.8770     2.4810     1.2300 c3         1 B1B      -0.091100
     18 C14         -3.1840    -1.5440    -0.7950 c          1 B1B       0.581100
     19 O2          -2.4520    -2.2120    -1.5200 o          1 B1B      -0.574100
     20 N3          -4.4730    -1.9590    -0.4680 ns         1 B1B      -0.378400
     21 O3          -5.1100    -3.0500    -1.1780 oh         1 B1B      -0.428100
     22 H1           5.7600    -1.5340    -0.0510 ha         1 B1B       0.131000
     23 H2           6.7810     0.5020    -1.0650 ha         1 B1B       0.118000
     24 H3           5.5670     2.6770    -0.9730 ha         1 B1B       0.118000
     25 H4           3.3460     2.8220     0.1270 ha         1 B1B       0.114000
     26 H5           1.8860     0.2140     2.2490 h1         1 B1B       0.067700
     27 H6           1.7440     1.8750     1.6540 h1         1 B1B       0.067700
     28 H7           1.0910     0.1800    -0.5100 hn         1 B1B       0.311500
     29 H8          -0.8170    -0.2910    -1.1010 hn         1 B1B       0.307500
     30 H9          -3.0510    -0.2400     0.8970 h1         1 B1B       0.084700
     31 H10         -3.1020     1.0560    -1.8870 hc         1 B1B       0.054700
     32 H11         -4.5300     0.8120    -0.9020 hc         1 B1B       0.054700
     33 H12         -2.1670     2.5700    -0.0720 hc         1 B1B       0.051700
     34 H13         -3.6010     4.5110    -0.6300 hc         1 B1B       0.035200
     35 H14         -3.2980     3.5130    -2.0640 hc         1 B1B       0.035200
     36 H15         -4.8690     3.4230    -1.2370 hc         1 B1B       0.035200
     37 H16         -3.4320     1.7480     1.9120 hc         1 B1B       0.035200
     38 H17         -3.7180     3.4750     1.6660 hc         1 B1B       0.035200
     39 H18         -4.9570     2.2970     1.1860 hc         1 B1B       0.035200
     40 H19         -5.0960    -1.3190     0.0240 hn         1 B1B       0.337500
     41 H20         -5.4420    -3.6360    -0.4570 ho         1 B1B       0.449000
@<TRIPOS>BOND
     1     1     2 1   
     2     2     3 ar  
     3     2     7 ar  
     4     3     4 ar  
     5     3    22 1   
     6     4     5 ar  
     7     4    23 1   
     8     5     6 ar  
     9     5    24 1   
    10     6     7 ar  
    11     6    25 1   
    12     7     8 1   
    13     8     9 1   
    14     8    26 1   
    15     8    27 1   
    16     9    10 1   
    17     9    28 1   
    18    10    11 2   
    19    10    12 1   
    20    12    13 1   
    21    12    29 1   
    22    13    14 1   
    23    13    18 1   
    24    13    30 1   
    25    14    15 1   
    26    14    31 1   
    27    14    32 1   
    28    15    16 1   
    29    15    17 1   
    30    15    33 1   
    31    16    34 1   
    32    16    35 1   
    33    16    36 1   
    34    17    37 1   
    35    17    38 1   
    36    17    39 1   
    37    18    19 2   
    38    18    20 1   
    39    20    21 1   
    40    20    40 1   
    41    21    41 1   
@<TRIPOS>SUBSTRUCTURE
     1 B1B         1 TEMP              0 ****  ****    0 ROOT
