@<TRIPOS>MOLECULE
B1C
   38    38     1     0     0
SMALL
bcc


@<TRIPOS>ATOM
      1 O1          -1.6130     0.0880     1.4690 o          1 B1C      -0.619000
      2 C4          -1.5390    -0.0210     0.2600 c          1 B1C       0.768100
      3 O2          -2.2960    -0.8320    -0.4870 os         1 B1C      -0.462900
      4 CT          -3.2480    -1.7630     0.0830 c3         1 B1C       0.202800
      5 C1          -3.8090    -2.4740    -1.1430 c3         1 B1C      -0.103100
      6 C2          -2.5530    -2.7730     0.9900 c3         1 B1C      -0.103100
      7 C3          -4.3720    -1.0300     0.8070 c3         1 B1C      -0.103100
      8 N           -0.6570     0.6310    -0.5190 ns         1 B1C      -0.513900
      9 CA           0.0920     1.7710    -0.0550 c3         1 B1C      -0.034300
     10 C           -0.6790     3.1070    -0.2370 c          1 B1C       0.918600
     11 OXT         -0.0180     4.1430    -0.0230 o          1 B1C      -0.825300
     12 CB           1.4680     1.7990    -0.7320 c3         1 B1C      -0.030100
     13 CG           2.2960     0.5900    -0.4040 ca         1 B1C      -0.076300
     14 CD1          2.2800    -0.5510    -1.2020 ca         1 B1C      -0.089500
     15 CD2          3.0780     0.5560     0.7470 ca         1 B1C      -0.089500
     16 CE1          3.0100    -1.6820    -0.8720 ca         1 B1C      -0.196000
     17 CE2          3.8160    -0.5660     1.0970 ca         1 B1C      -0.196000
     18 CZ           3.7840    -1.6960     0.2850 ca         1 B1C       0.108100
     19 OH           4.4800    -2.8200     0.5680 oh         1 B1C      -0.511100
     20 O           -1.8790     3.0320    -0.5520 o          1 B1C      -0.825300
     21 H1          -4.3010    -1.7720    -1.8180 hc         1 B1C       0.041367
     22 H2          -3.0250    -2.9930    -1.6970 hc         1 B1C       0.041367
     23 H3          -4.5480    -3.2160    -0.8380 hc         1 B1C       0.041367
     24 H4          -3.2480    -3.5790     1.2310 hc         1 B1C       0.041367
     25 H5          -1.6940    -3.2220     0.4880 hc         1 B1C       0.041367
     26 H6          -2.2200    -2.3300     1.9260 hc         1 B1C       0.041367
     27 H7          -4.8270    -0.2790     0.1600 hc         1 B1C       0.041367
     28 H8          -5.1500    -1.7440     1.0800 hc         1 B1C       0.041367
     29 H9          -4.0310    -0.5430     1.7180 hc         1 B1C       0.041367
     30 H10         -0.8010     0.5670    -1.5150 hn         1 B1C       0.301500
     31 H11          0.2580     1.6380     1.0180 h1         1 B1C       0.068700
     32 H13          1.3390     1.8880    -1.8150 hc         1 B1C       0.058200
     33 H14          1.9790     2.7040    -0.4050 hc         1 B1C       0.058200
     34 H15          1.6850    -0.5620    -2.1080 ha         1 B1C       0.131500
     35 H16          3.1140     1.4270     1.3920 ha         1 B1C       0.131500
     36 H17          2.9820    -2.5580    -1.5100 ha         1 B1C       0.123000
     37 H18          4.4190    -0.5540     1.9980 ha         1 B1C       0.123000
     38 H19          4.9630    -2.7140     1.3940 ho         1 B1C       0.413000
@<TRIPOS>BOND
     1     1     2 2   
     2     2     3 1   
     3     2     8 1   
     4     3     4 1   
     5     4     5 1   
     6     4     6 1   
     7     4     7 1   
     8     5    21 1   
     9     5    22 1   
    10     5    23 1   
    11     6    24 1   
    12     6    25 1   
    13     6    26 1   
    14     7    27 1   
    15     7    28 1   
    16     7    29 1   
    17     8     9 1   
    18     8    30 1   
    19     9    10 1   
    20     9    12 1   
    21     9    31 1   
    22    10    11 1   
    23    10    20 1   
    24    12    13 1   
    25    12    32 1   
    26    12    33 1   
    27    13    14 ar  
    28    13    15 ar  
    29    14    16 ar  
    30    14    34 1   
    31    15    17 ar  
    32    15    35 1   
    33    16    18 ar  
    34    16    36 1   
    35    17    18 ar  
    36    17    37 1   
    37    18    19 1   
    38    19    38 1   
@<TRIPOS>SUBSTRUCTURE
     1 B1C         1 TEMP              0 ****  ****    0 ROOT
