@<TRIPOS>MOLECULE
B1C
   38    38     1     0     0
SMALL
No Charge or Current Charge


@<TRIPOS>ATOM
      1 O1          -0.9350     0.1060     1.3480 o          1 B1C      -0.570000
      2 C4          -1.3450     0.2330     0.2050 c          1 B1C       0.652100
      3 O2          -2.2150    -0.5900    -0.4580 os         1 B1C      -0.486100
      4 CT          -2.7030    -1.8260     0.1150 c3         1 B1C       0.226000
      5 C1          -3.6160    -2.4210    -0.9800 c3         1 B1C      -0.103100
      6 C2          -1.5080    -2.7800     0.3810 c3         1 B1C      -0.103100
      7 C3          -3.5350    -1.5240     1.3890 c3         1 B1C      -0.103100
      8 N           -0.9990     1.2510    -0.6410 ns         1 B1C      -0.446900
      9 CA           0.0360     2.2770    -0.3680 c3         1 B1C      -0.034300
     10 C           -0.3930     3.6570    -0.9500 c          1 B1C       0.708000
     11 OXT         -0.4560     4.6090    -0.1850 o          1 B1C      -0.720000
     12 CB           1.4280     1.8470    -0.9000 c3         1 B1C      -0.030100
     13 CG           1.8920     0.4980    -0.3580 ca         1 B1C      -0.076300
     14 CD1          1.7170    -0.6750    -1.1200 ca         1 B1C      -0.071500
     15 CD2          2.4870     0.4120     0.9160 ca         1 B1C      -0.071500
     16 CE1          2.1310    -1.9190    -0.6100 ca         1 B1C      -0.178000
     17 CE2          2.9020    -0.8320     1.4230 ca         1 B1C      -0.178000
     18 CZ           2.7210    -1.9960     0.6590 ca         1 B1C       0.108100
     19 OH           3.1180    -3.2040     1.1470 oh         1 B1C      -0.550100
     20 O           -0.7230     3.7190    -2.1270 o          1 B1C      -0.720000
     21 H1          -4.4440    -1.7400    -1.2100 hc         1 B1C       0.041367
     22 H2          -3.0530    -2.5990    -1.9040 hc         1 B1C       0.041367
     23 H3          -4.0440    -3.3770    -0.6550 hc         1 B1C       0.041367
     24 H4          -1.8690    -3.7890     0.6140 hc         1 B1C       0.041367
     25 H5          -0.8610    -2.8490    -0.5030 hc         1 B1C       0.041367
     26 H6          -0.8980    -2.4500     1.2280 hc         1 B1C       0.041367
     27 H7          -4.2490    -0.7130     1.2040 hc         1 B1C       0.041367
     28 H8          -4.1030    -2.4120     1.6920 hc         1 B1C       0.041367
     29 H9          -2.9020    -1.2430     2.2370 hc         1 B1C       0.041367
     30 H10         -1.4410     1.2380    -1.5510 hn         1 B1C       0.301500
     31 H11          0.1120     2.4030     0.7190 h1         1 B1C       0.068700
     32 H13          1.3980     1.8180    -1.9970 hc         1 B1C       0.058200
     33 H14          2.1590     2.6230    -0.6410 hc         1 B1C       0.058200
     34 H15          1.2530    -0.6250    -2.1030 ha         1 B1C       0.113500
     35 H16          2.6230     1.3100     1.5150 ha         1 B1C       0.113500
     36 H17          1.9890    -2.8200    -1.2010 ha         1 B1C       0.105000
     37 H18          3.3570    -0.8840     2.4090 ha         1 B1C       0.105000
     38 H19          3.5050    -3.0650     2.0380 ho         1 B1C       0.452000
@<TRIPOS>BOND
     1     1     2 2   
     2     2     3 1   
     3     2     8 1   
     4     3     4 1   
     5     4     5 1   
     6     4     6 1   
     7     4     7 1   
     8     5    21 1   
     9     5    22 1   
    10     5    23 1   
    11     6    24 1   
    12     6    25 1   
    13     6    26 1   
    14     7    27 1   
    15     7    28 1   
    16     7    29 1   
    17     8     9 1   
    18     8    30 1   
    19     9    10 1   
    20     9    12 1   
    21     9    31 1   
    22    10    11 1   
    23    10    20 1   
    24    12    13 1   
    25    12    32 1   
    26    12    33 1   
    27    13    14 ar  
    28    13    15 ar  
    29    14    16 ar  
    30    14    34 1   
    31    15    17 ar  
    32    15    35 1   
    33    16    18 ar  
    34    16    36 1   
    35    17    18 ar  
    36    17    37 1   
    37    18    19 1   
    38    19    38 1   
@<TRIPOS>SUBSTRUCTURE
     1 B1C         1 TEMP              0 ****  ****    0 ROOT
