@<TRIPOS>MOLECULE
B1E
   59    62     1     0     0
SMALL
No Charge or Current Charge


@<TRIPOS>ATOM
      1 C1          -4.4110     1.1600    -0.2470 ca         1 B1E      -0.158600
      2 C2          -5.5420     1.3130     0.5740 ca         1 B1E       0.134400
      3 C3          -5.9670     0.2190     1.3510 ca         1 B1E      -0.061000
      4 C4          -5.2760    -1.0060     1.3170 ca         1 B1E      -0.144000
      5 C5          -4.1380    -1.1550     0.5130 ca         1 B1E       0.312000
      6 C6          -3.7180    -0.0730    -0.2800 ca         1 B1E      -0.114000
      7 C7          -3.9680     2.3110    -1.0770 c          1 B1E       0.567600
      8 N8          -4.7380     3.4640    -0.9510 n          1 B1E      -0.336300
      9 C9          -5.8370     3.5000    -0.1020 cc         1 B1E       0.489800
     10 N10         -6.2840     2.4990     0.6630 nd         1 B1E      -0.609100
     11 O11         -2.9940     2.2500    -1.8180 o          1 B1E      -0.540000
     12 N12         -3.4800    -2.3860     0.4890 nu         1 B1E      -0.994000
     13 C13         -2.1810    -2.7800     0.1560 ca         1 B1E       0.340000
     14 C14         -1.9320    -4.1000    -0.2810 ca         1 B1E      -0.150300
     15 C15         -0.6140    -4.4810    -0.5990 ca         1 B1E      -0.056000
     16 C16          0.4450    -3.5680    -0.4740 ca         1 B1E      -0.152000
     17 C17          0.2060    -2.2560    -0.0160 ca         1 B1E       0.010000
     18 C18         -1.1110    -1.8800     0.2980 ca         1 B1E      -0.215000
     19 C19         -3.0610    -5.1190    -0.4310 c3         1 B1E      -0.039800
     20 N20          1.2230    -1.2760     0.1520 ns         1 B1E      -0.142000
     21 C21          2.6030    -1.3120    -0.0140 c          1 B1E       0.620700
     22 C22          3.3350    -0.0100     0.2650 ca         1 B1E      -0.153600
     23 O23          3.2120    -2.3180    -0.3600 o          1 B1E      -0.572100
     24 C24          4.7420     0.0380     0.1250 ca         1 B1E      -0.047000
     25 C25          5.4810     1.2220     0.3700 ca         1 B1E      -0.088300
     26 C26          4.7680     2.3790     0.7640 ca         1 B1E      -0.078000
     27 C27          3.3730     2.3460     0.9070 ca         1 B1E      -0.118000
     28 C28          2.6570     1.1660     0.6620 ca         1 B1E      -0.081000
     29 C29          7.0260     1.2090     0.2000 c3         1 B1E       0.069400
     30 C30          7.3350     0.8420    -1.2000 c1         1 B1E       0.298900
     31 C31          7.6930     2.5840     0.4920 c3         1 B1E      -0.084600
     32 C32          7.6460     0.1560     1.1600 c3         1 B1E      -0.084600
     33 C33         -4.3630     4.6560    -1.7420 c3         1 B1E       0.083300
     34 N34          7.5980     0.5340    -2.2930 n1         1 B1E      -0.451000
     35 H1          -6.8440     0.3210     1.9860 ha         1 B1E       0.133000
     36 H2          -5.6250    -1.8350     1.9270 ha         1 B1E       0.116000
     37 H3          -2.8610    -0.1930    -0.9360 ha         1 B1E       0.146000
     38 H4          -6.3560     4.4510    -0.0880 h5         1 B1E       0.045800
     39 H5          -4.0780    -3.1710     0.7440 hn         1 B1E       0.497000
     40 H6          -0.4060    -5.4910    -0.9470 ha         1 B1E       0.115000
     41 H7           1.4430    -3.9060    -0.7340 ha         1 B1E       0.150000
     42 H8          -1.2990    -0.8800     0.6770 ha         1 B1E       0.120000
     43 H9          -3.8430    -4.7480    -1.1040 hc         1 B1E       0.039700
     44 H10         -2.7010    -6.0690    -0.8460 hc         1 B1E       0.039700
     45 H11         -3.5240    -5.3410     0.5380 hc         1 B1E       0.039700
     46 H12          0.8680    -0.3770     0.4490 hn         1 B1E       0.155000
     47 H13          5.2690    -0.8620    -0.1860 ha         1 B1E       0.142000
     48 H14          5.2730     3.3190     0.9680 ha         1 B1E       0.118000
     49 H15          2.8420     3.2450     1.2120 ha         1 B1E       0.120000
     50 H16          1.5770     1.1890     0.7850 ha         1 B1E       0.120000
     51 H17          7.5130     2.8960     1.5280 hc         1 B1E       0.048200
     52 H18          8.7810     2.5310     0.3510 hc         1 B1E       0.048200
     53 H19          7.3120     3.3640    -0.1780 hc         1 B1E       0.048200
     54 H20          7.3870     0.3870     2.2010 hc         1 B1E       0.048200
     55 H21          7.2890    -0.8580     0.9430 hc         1 B1E       0.048200
     56 H22          8.7400     0.1450     1.0800 hc         1 B1E       0.048200
     57 H23         -4.3970     4.4170    -2.8130 h1         1 B1E       0.052700
     58 H24         -5.0530     5.4870    -1.5440 h1         1 B1E       0.052700
     59 H25         -3.3460     4.9720    -1.4770 h1         1 B1E       0.052700
@<TRIPOS>BOND
     1     1     2 ar  
     2     1     6 ar  
     3     1     7 1   
     4     2     3 ar  
     5     2    10 1   
     6     3     4 ar  
     7     3    35 1   
     8     4     5 ar  
     9     4    36 1   
    10     5     6 ar  
    11     5    12 1   
    12     6    37 1   
    13     7     8 1   
    14     7    11 2   
    15     8     9 1   
    16     8    33 1   
    17     9    10 2   
    18     9    38 1   
    19    12    13 1   
    20    12    39 1   
    21    13    14 ar  
    22    13    18 ar  
    23    14    15 ar  
    24    14    19 1   
    25    15    16 ar  
    26    15    40 1   
    27    16    17 ar  
    28    16    41 1   
    29    17    18 ar  
    30    17    20 1   
    31    18    42 1   
    32    19    43 1   
    33    19    44 1   
    34    19    45 1   
    35    20    21 1   
    36    20    46 1   
    37    21    22 1   
    38    21    23 2   
    39    22    24 ar  
    40    22    28 ar  
    41    24    25 ar  
    42    24    47 1   
    43    25    26 ar  
    44    25    29 1   
    45    26    27 ar  
    46    26    48 1   
    47    27    28 ar  
    48    27    49 1   
    49    28    50 1   
    50    29    30 1   
    51    29    31 1   
    52    29    32 1   
    53    30    34 3   
    54    31    51 1   
    55    31    52 1   
    56    31    53 1   
    57    32    54 1   
    58    32    55 1   
    59    32    56 1   
    60    33    57 1   
    61    33    58 1   
    62    33    59 1   
@<TRIPOS>SUBSTRUCTURE
     1 B1E         1 TEMP              0 ****  ****    0 ROOT
