@<TRIPOS>MOLECULE
B1E
   59    62     1     0     0
SMALL
bcc


@<TRIPOS>ATOM
      1 C1          -4.2950     1.1010     0.0280 ca         1 B1E      -0.158600
      2 C2          -5.3440     1.2300     0.9460 ca         1 B1E       0.134400
      3 C3          -5.6950     0.1080     1.7100 ca         1 B1E      -0.079000
      4 C4          -5.0130    -1.0740     1.5680 ca         1 B1E      -0.162000
      5 C5          -3.9520    -1.2050     0.6460 ca         1 B1E       0.173600
      6 C6          -3.6120    -0.1050    -0.1290 ca         1 B1E      -0.132000
      7 C7          -3.9260     2.2540    -0.7880 c          1 B1E       0.710100
      8 N8          -4.6810     3.3840    -0.5450 n          1 B1E      -0.403300
      9 C9          -5.6790     3.3980     0.3860 cc         1 B1E       0.489800
     10 N10         -6.0310     2.4070     1.1150 nd         1 B1E      -0.609100
     11 O11         -3.0380     2.2600    -1.6230 o          1 B1E      -0.615500
     12 N12         -3.3440    -2.4380     0.5340 nu         1 B1E      -0.662000
     13 C13         -2.0830    -2.7380     0.0350 ca         1 B1E       0.201600
     14 C14         -1.8630    -4.0180    -0.5050 ca         1 B1E      -0.150300
     15 C15         -0.5910    -4.3090    -0.9720 ca         1 B1E      -0.074000
     16 C16          0.4580    -3.4000    -0.9400 ca         1 B1E      -0.170000
     17 C17          0.2310    -2.1400    -0.3920 ca         1 B1E       0.102600
     18 C18         -1.0340    -1.8260     0.1020 ca         1 B1E      -0.233000
     19 C19         -2.9680    -5.0290    -0.5800 c3         1 B1E      -0.039800
     20 N20          1.1970    -1.1300    -0.3040 ns         1 B1E      -0.468100
     21 C21          2.5400    -1.2250    -0.4630 c          1 B1E       0.687700
     22 C22          3.2840     0.0660    -0.3330 ca         1 B1E      -0.153600
     23 O23          3.1280    -2.2690    -0.6830 o          1 B1E      -0.572100
     24 C24          4.6170     0.0020     0.0580 ca         1 B1E      -0.065000
     25 C25          5.3900     1.1510     0.1820 ca         1 B1E      -0.088300
     26 C26          4.8090     2.3800    -0.1070 ca         1 B1E      -0.096000
     27 C27          3.4830     2.4520    -0.5140 ca         1 B1E      -0.136000
     28 C28          2.7180     1.3040    -0.6290 ca         1 B1E      -0.099000
     29 C29          6.8300     1.0420     0.6800 c3         1 B1E       0.069400
     30 C30          7.4820    -0.0650    -0.0310 c1         1 B1E       0.209700
     31 C31          7.6660     2.3010     0.4200 c3         1 B1E      -0.084600
     32 C32          6.8330     0.7200     2.1840 c3         1 B1E      -0.084600
     33 C33         -4.3880     4.5860    -1.3120 c3         1 B1E       0.083300
     34 N34          8.0110    -0.9260    -0.5830 n1         1 B1E      -0.361800
     35 H1          -6.5050     0.1880     2.4230 ha         1 B1E       0.151000
     36 H2          -5.2910    -1.9260     2.1770 ha         1 B1E       0.134000
     37 H3          -2.8300    -0.1690    -0.8730 ha         1 B1E       0.164000
     38 H4          -6.1970     4.3450     0.4870 h5         1 B1E       0.045800
     39 H5          -3.8630    -3.2110     0.9180 hn         1 B1E       0.441800
     40 H6          -0.4060    -5.2890    -1.3960 ha         1 B1E       0.133000
     41 H7           1.4180    -3.6820    -1.3370 ha         1 B1E       0.168000
     42 H8          -1.1890    -0.8600     0.5670 ha         1 B1E       0.138000
     43 H9          -3.8300    -4.6470    -1.1310 hc         1 B1E       0.039700
     44 H10         -2.6280    -5.9330    -1.0820 hc         1 B1E       0.039700
     45 H11         -3.3270    -5.3290     0.4080 hc         1 B1E       0.039700
     46 H12          0.8410    -0.2390     0.0060 hn         1 B1E       0.321500
     47 H13          5.0490    -0.9690     0.2730 ha         1 B1E       0.160000
     48 H14          5.3780     3.2950    -0.0260 ha         1 B1E       0.136000
     49 H15          3.0490     3.4140    -0.7530 ha         1 B1E       0.138000
     50 H16          1.6970     1.3910    -0.9790 ha         1 B1E       0.138000
     51 H17          7.2740     3.1390     0.9950 hc         1 B1E       0.048200
     52 H18          8.6940     2.1360     0.7400 hc         1 B1E       0.048200
     53 H19          7.6720     2.5740    -0.6340 hc         1 B1E       0.048200
     54 H20          6.3480     1.5330     2.7230 hc         1 B1E       0.048200
     55 H21          6.2980    -0.2040     2.4010 hc         1 B1E       0.048200
     56 H22          7.8540     0.6240     2.5540 hc         1 B1E       0.048200
     57 H23         -4.5300     4.4060    -2.3760 h1         1 B1E       0.052700
     58 H24         -5.0630     5.3760    -0.9970 h1         1 B1E       0.052700
     59 H25         -3.3640     4.9110    -1.1410 h1         1 B1E       0.052700
@<TRIPOS>BOND
     1     1     2 ar  
     2     1     6 ar  
     3     1     7 1   
     4     2     3 ar  
     5     2    10 1   
     6     3     4 ar  
     7     3    35 1   
     8     4     5 ar  
     9     4    36 1   
    10     5     6 ar  
    11     5    12 1   
    12     6    37 1   
    13     7     8 1   
    14     7    11 2   
    15     8     9 1   
    16     8    33 1   
    17     9    10 2   
    18     9    38 1   
    19    12    13 1   
    20    12    39 1   
    21    13    14 ar  
    22    13    18 ar  
    23    14    15 ar  
    24    14    19 1   
    25    15    16 ar  
    26    15    40 1   
    27    16    17 ar  
    28    16    41 1   
    29    17    18 ar  
    30    17    20 1   
    31    18    42 1   
    32    19    43 1   
    33    19    44 1   
    34    19    45 1   
    35    20    21 1   
    36    20    46 1   
    37    21    22 1   
    38    21    23 2   
    39    22    24 ar  
    40    22    28 ar  
    41    24    25 ar  
    42    24    47 1   
    43    25    26 ar  
    44    25    29 1   
    45    26    27 ar  
    46    26    48 1   
    47    27    28 ar  
    48    27    49 1   
    49    28    50 1   
    50    29    30 1   
    51    29    31 1   
    52    29    32 1   
    53    30    34 3   
    54    31    51 1   
    55    31    52 1   
    56    31    53 1   
    57    32    54 1   
    58    32    55 1   
    59    32    56 1   
    60    33    57 1   
    61    33    58 1   
    62    33    59 1   
@<TRIPOS>SUBSTRUCTURE
     1 B1E         1 TEMP              0 ****  ****    0 ROOT
