@<TRIPOS>MOLECULE
B1I
   50    53     1     0     0
SMALL
No Charge or Current Charge


@<TRIPOS>ATOM
      1 F           -0.7690    -9.3250    38.8510 f          1 B1I      -0.181000
      2 C9          -0.1950   -10.5030    38.5240 ca         1 B1I       0.198000
      3 C8           1.0860   -10.8080    39.0030 ca         1 B1I      -0.186000
      4 C7           1.6850   -12.0310    38.6610 ca         1 B1I      -0.056000
      5 C6           0.9930   -12.9400    37.8410 ca         1 B1I      -0.192000
      6 C10         -0.8850   -11.4100    37.7080 ca         1 B1I      -0.199000
      7 C5          -0.2970   -12.6360    37.3590 ca         1 B1I       0.327000
      8 N           -1.0050   -13.5380    36.5340 nh         1 B1I      -0.790400
      9 C4          -0.2870   -14.4800    35.6300 c6         1 B1I       0.197800
     10 C           -1.1510   -14.8400    34.3960 c6         1 B1I      -0.079400
     11 C3          -2.3570   -14.0240    36.9560 c6         1 B1I       0.188800
     12 C2          -3.2670   -14.3890    35.7360 c6         1 B1I       0.233500
     13 C1          -2.5360   -15.3960    34.8110 c6         1 B1I      -0.091400
     14 N1          -4.5620   -14.9640    36.1810 nu         1 B1I      -0.939100
     15 C11         -5.7120   -15.0510    35.4110 ca         1 B1I       0.414900
     16 N3          -5.7760   -14.3410    34.2750 nb         1 B1I      -0.290000
     17 C14         -6.9100   -14.4650    33.5620 ca         1 B1I       0.195900
     18 N2          -7.9760   -15.2230    33.8810 nb         1 B1I      -0.293000
     19 C13         -7.9040   -15.9290    35.0260 ca         1 B1I       0.415900
     20 C12         -6.7590   -15.8660    35.8350 ca         1 B1I      -0.377000
     21 N4          -9.0290   -16.7230    35.3610 nh         1 B1I      -0.776300
     22 C18         -9.8850   -17.3420    34.2840 c6         1 B1I       0.182800
     23 C17        -11.3030   -17.7430    34.7870 c6         1 B1I       0.141100
     24 O          -11.2190   -18.5340    35.9940 os         1 B1I      -0.443000
     25 C16        -10.5800   -17.8170    37.0730 c6         1 B1I       0.141100
     26 C15         -9.1230   -17.4150    36.6930 c6         1 B1I       0.182800
     27 H1           1.6130   -10.0980    39.6360 ha         1 B1I       0.133000
     28 H2           2.6780   -12.2760    39.0310 ha         1 B1I       0.114000
     29 H3           1.4610   -13.8870    37.5930 ha         1 B1I       0.116000
     30 H4          -1.8710   -11.1530    37.3370 ha         1 B1I       0.136000
     31 H5          -0.0280   -15.4000    36.1750 h1         1 B1I       0.039200
     32 H6           0.6530   -14.0290    35.2770 h1         1 B1I       0.039200
     33 H7          -0.6210   -15.5770    33.7770 hc         1 B1I       0.053700
     34 H8          -1.2840   -13.9460    33.7710 hc         1 B1I       0.053700
     35 H9          -2.8730   -13.2600    37.5560 h1         1 B1I       0.041700
     36 H10         -2.2410   -14.9100    37.5970 h1         1 B1I       0.041700
     37 H11         -3.4310   -13.4540    35.1770 h1         1 B1I       0.105700
     38 H12         -3.1380   -15.5960    33.9140 hc         1 B1I       0.048700
     39 H13         -2.4070   -16.3570    35.3280 hc         1 B1I       0.048700
     40 H14         -4.5680   -15.5400    37.0220 hn         1 B1I       0.486000
     41 H15         -6.9720   -13.8950    32.6370 h5         1 B1I       0.041100
     42 H16         -6.6700   -16.4330    36.7530 ha         1 B1I       0.123000
     43 H17         -9.3880   -18.2390    33.8870 h1         1 B1I       0.059700
     44 H18        -10.0230   -16.6520    33.4390 h1         1 B1I       0.059700
     45 H19        -11.8960   -16.8400    34.9890 h1         1 B1I       0.054200
     46 H20        -11.8220   -18.3230    34.0120 h1         1 B1I       0.054200
     47 H21        -11.1660   -16.9150    37.3030 h1         1 B1I       0.054200
     48 H22        -10.5690   -18.4500    37.9710 h1         1 B1I       0.054200
     49 H23         -8.4970   -18.3200    36.6900 h1         1 B1I       0.059700
     50 H24         -8.7480   -16.7600    37.4930 h1         1 B1I       0.059700
@<TRIPOS>BOND
     1     1     2 1   
     2     2     3 ar  
     3     2     6 ar  
     4     3     4 ar  
     5     3    27 1   
     6     4     5 ar  
     7     4    28 1   
     8     5     7 ar  
     9     5    29 1   
    10     6     7 ar  
    11     6    30 1   
    12     7     8 1   
    13     8     9 1   
    14     8    11 1   
    15     9    10 1   
    16     9    31 1   
    17     9    32 1   
    18    10    13 1   
    19    10    33 1   
    20    10    34 1   
    21    11    12 1   
    22    11    35 1   
    23    11    36 1   
    24    12    13 1   
    25    12    14 1   
    26    12    37 1   
    27    13    38 1   
    28    13    39 1   
    29    14    15 1   
    30    14    40 1   
    31    15    16 ar  
    32    15    20 ar  
    33    16    17 ar  
    34    17    18 ar  
    35    17    41 1   
    36    18    19 ar  
    37    19    20 ar  
    38    19    21 1   
    39    20    42 1   
    40    21    22 1   
    41    21    26 1   
    42    22    23 1   
    43    22    43 1   
    44    22    44 1   
    45    23    24 1   
    46    23    45 1   
    47    23    46 1   
    48    24    25 1   
    49    25    26 1   
    50    25    47 1   
    51    25    48 1   
    52    26    49 1   
    53    26    50 1   
@<TRIPOS>SUBSTRUCTURE
     1 B1I         1 TEMP              0 ****  ****    0 ROOT
