@<TRIPOS>MOLECULE
B1I
   50    53     1     0     0
SMALL
abcg2


@<TRIPOS>ATOM
      1 F           -2.1140    -9.8950    39.1630 f          1 B1I      -0.181000
      2 C9          -1.2120   -10.7770    38.6960 ca         1 B1I       0.198000
      3 C8           0.0960   -10.6830    39.1350 ca         1 B1I      -0.186000
      4 C7           0.9970   -11.6030    38.6220 ca         1 B1I      -0.056000
      5 C6           0.6050   -12.5800    37.7170 ca         1 B1I      -0.192000
      6 C10         -1.6380   -11.7220    37.7890 ca         1 B1I      -0.199000
      7 C5          -0.7240   -12.6580    37.2780 ca         1 B1I       0.327000
      8 N           -1.1480   -13.5980    36.3440 nh         1 B1I      -0.790400
      9 C4          -0.1450   -14.4060    35.6740 c6         1 B1I       0.197800
     10 C           -0.7080   -15.0040    34.3930 c6         1 B1I      -0.079400
     11 C3          -2.3640   -14.3380    36.6490 c6         1 B1I       0.188800
     12 C2          -2.9900   -14.9270    35.3880 c6         1 B1I       0.233500
     13 C1          -1.9800   -15.7980    34.6530 c6         1 B1I      -0.091400
     14 N1          -4.1830   -15.6530    35.7560 nu         1 B1I      -0.939100
     15 C11         -5.3870   -15.5380    35.1620 ca         1 B1I       0.414900
     16 N3          -5.4940   -14.7220    34.1010 nb         1 B1I      -0.290000
     17 C14         -6.6950   -14.6480    33.5600 ca         1 B1I       0.195900
     18 N2          -7.8000   -15.2550    33.9320 nb         1 B1I      -0.293000
     19 C13         -7.7130   -16.0650    35.0080 ca         1 B1I       0.415900
     20 C12         -6.4880   -16.2560    35.6450 ca         1 B1I      -0.377000
     21 N4          -8.8700   -16.6410    35.4300 nh         1 B1I      -0.776300
     22 C18        -10.0450   -16.6820    34.5740 c6         1 B1I       0.182800
     23 C17        -11.3040   -16.6230    35.4170 c6         1 B1I       0.141100
     24 O          -11.3310   -17.6420    36.3900 os         1 B1I      -0.443000
     25 C16        -10.2200   -17.5360    37.2460 c6         1 B1I       0.141100
     26 C15         -8.9010   -17.6220    36.4950 c6         1 B1I       0.182800
     27 H1           0.3960    -9.9260    39.8460 ha         1 B1I       0.133000
     28 H2           2.0290   -11.5720    38.9450 ha         1 B1I       0.114000
     29 H3           1.3430   -13.2900    37.3750 ha         1 B1I       0.116000
     30 H4          -2.6700   -11.7070    37.4640 ha         1 B1I       0.136000
     31 H5           0.2240   -15.2120    36.3280 h1         1 B1I       0.039200
     32 H6           0.7090   -13.7790    35.4210 h1         1 B1I       0.039200
     33 H7           0.0530   -15.6410    33.9390 hc         1 B1I       0.053700
     34 H8          -0.9130   -14.1980    33.6830 hc         1 B1I       0.053700
     35 H9          -3.0920   -13.6870    37.1260 h1         1 B1I       0.041700
     36 H10         -2.1460   -15.1520    37.3610 h1         1 B1I       0.041700
     37 H11         -3.2910   -14.1040    34.7390 h1         1 B1I       0.105700
     38 H12         -2.4090   -16.1600    33.7160 hc         1 B1I       0.048700
     39 H13         -1.7490   -16.6780    35.2640 hc         1 B1I       0.048700
     40 H14         -4.1040   -16.3110    36.5170 hn         1 B1I       0.486000
     41 H15         -6.7820   -14.0000    32.6920 h5         1 B1I       0.041100
     42 H16         -6.3590   -16.9160    36.4900 ha         1 B1I       0.123000
     43 H17        -10.0410   -17.6020    33.9750 h1         1 B1I       0.059700
     44 H18        -10.0280   -15.8400    33.8890 h1         1 B1I       0.059700
     45 H19        -11.3770   -15.6350    35.8930 h1         1 B1I       0.054200
     46 H20        -12.1790   -16.7550    34.7780 h1         1 B1I       0.054200
     47 H21        -10.2510   -16.5880    37.8030 h1         1 B1I       0.054200
     48 H22        -10.2790   -18.3510    37.9680 h1         1 B1I       0.054200
     49 H23         -8.7540   -18.6330    36.0940 h1         1 B1I       0.059700
     50 H24         -8.1060   -17.4360    37.2140 h1         1 B1I       0.059700
@<TRIPOS>BOND
     1     1     2 1   
     2     2     3 ar  
     3     2     6 ar  
     4     3     4 ar  
     5     3    27 1   
     6     4     5 ar  
     7     4    28 1   
     8     5     7 ar  
     9     5    29 1   
    10     6     7 ar  
    11     6    30 1   
    12     7     8 1   
    13     8     9 1   
    14     8    11 1   
    15     9    10 1   
    16     9    31 1   
    17     9    32 1   
    18    10    13 1   
    19    10    33 1   
    20    10    34 1   
    21    11    12 1   
    22    11    35 1   
    23    11    36 1   
    24    12    13 1   
    25    12    14 1   
    26    12    37 1   
    27    13    38 1   
    28    13    39 1   
    29    14    15 1   
    30    14    40 1   
    31    15    16 ar  
    32    15    20 ar  
    33    16    17 ar  
    34    17    18 ar  
    35    17    41 1   
    36    18    19 ar  
    37    19    20 ar  
    38    19    21 1   
    39    20    42 1   
    40    21    22 1   
    41    21    26 1   
    42    22    23 1   
    43    22    43 1   
    44    22    44 1   
    45    23    24 1   
    46    23    45 1   
    47    23    46 1   
    48    24    25 1   
    49    25    26 1   
    50    25    47 1   
    51    25    48 1   
    52    26    49 1   
    53    26    50 1   
@<TRIPOS>SUBSTRUCTURE
     1 B1I         1 TEMP              0 ****  ****    0 ROOT
