@<TRIPOS>MOLECULE
B1J
   22    23     1     0     0
SMALL
No Charge or Current Charge


@<TRIPOS>ATOM
      1 N1           1.1400     0.3860    -0.2120 na         1 B1J       0.213000
      2 N3           1.6790     1.4270    -0.8980 nc         1 B1J      -0.190800
      3 C4          -2.4720     1.1700     0.2630 ca         1 B1J      -0.092500
      4 C5          -1.0790     1.3340     0.1570 ca         1 B1J      -0.094000
      5 C6          -0.2470     0.2240    -0.1090 ca         1 B1J       0.002800
      6 C7           2.0650    -0.4960     0.2740 cc         1 B1J      -0.168000
      7 C8           3.2410     0.0750    -0.1340 cd         1 B1J       0.195300
      8 C1          -0.8330    -1.0510    -0.2690 ca         1 B1J      -0.094000
      9 C2          -2.2260    -1.2120    -0.1630 ca         1 B1J      -0.092500
     10 C3          -3.0440    -0.1020     0.1030 ca         1 B1J       0.120000
     11 N2           2.9740     1.2420    -0.8390 nd         1 B1J      -0.356000
     12 C9           4.6510    -0.4240     0.1110 c3         1 B1J       0.146300
     13 O1           4.7950    -1.8250    -0.1930 oh         1 B1J      -0.666000
     14 Cl1         -4.7860    -0.3050     0.2360 cl         1 B1J      -0.188000
     15 H2          -0.6480     2.3250     0.2880 ha         1 B1J       0.139000
     16 H3           1.8380    -1.3890     0.8370 h4         1 B1J       0.180000
     17 H4          -0.2130    -1.9190    -0.4840 ha         1 B1J       0.139000
     18 H5          -2.6730    -2.1950    -0.2880 ha         1 B1J       0.137500
     19 H6           5.3460     0.1680    -0.4990 h1         1 B1J       0.039700
     20 H7           4.9010    -0.2380     1.1640 h1         1 B1J       0.039700
     21 H8           5.7340    -2.0620    -0.0170 ho         1 B1J       0.451000
     22 H1          -3.1080     2.0280     0.4700 ha         1 B1J       0.137500
@<TRIPOS>BOND
     1     1     2 1   
     2     1     5 1   
     3     1     6 1   
     4     2    11 2   
     5     3     4 ar  
     6     3    10 ar  
     7     3    22 1   
     8     4     5 ar  
     9     4    15 1   
    10     5     8 ar  
    11     6     7 2   
    12     6    16 1   
    13     7    11 1   
    14     7    12 1   
    15     8     9 ar  
    16     8    17 1   
    17     9    10 ar  
    18     9    18 1   
    19    10    14 1   
    20    12    13 1   
    21    12    19 1   
    22    12    20 1   
    23    13    21 1   
@<TRIPOS>SUBSTRUCTURE
     1 B1J         1 TEMP              0 ****  ****    0 ROOT
