@<TRIPOS>MOLECULE
B1J
   22    23     1     0     0
SMALL
abcg2


@<TRIPOS>ATOM
      1 N1           1.1310     0.3320    -0.1990 na         1 B1J       0.213000
      2 N3           1.6660     1.4640    -0.6320 nc         1 B1J      -0.190800
      3 C4          -2.4250     1.1390     0.3400 ca         1 B1J      -0.092500
      4 C5          -1.0510     1.2810     0.2480 ca         1 B1J      -0.094000
      5 C6          -0.2690     0.1880    -0.1030 ca         1 B1J       0.002800
      6 C7           2.0910    -0.5700     0.1040 cc         1 B1J      -0.168000
      7 C8           3.2570     0.0890    -0.1710 cd         1 B1J       0.195300
      8 C1          -0.8520    -1.0450    -0.3570 ca         1 B1J      -0.094000
      9 C2          -2.2260    -1.1930    -0.2500 ca         1 B1J      -0.092500
     10 C3          -3.0020    -0.0980     0.0940 ca         1 B1J       0.120000
     11 N2           2.9430     1.3260    -0.6160 nd         1 B1J      -0.356000
     12 C9           4.6620    -0.3820    -0.0250 c3         1 B1J       0.146300
     13 O1           4.6230    -1.7000     0.4580 oh         1 B1J      -0.666000
     14 CL1         -4.7180    -0.2750     0.2180 cl         1 B1J      -0.188000
     15 H2          -0.5960     2.2380     0.4580 ha         1 B1J       0.139000
     16 H3           1.8740    -1.5480     0.4960 h4         1 B1J       0.180000
     17 H4          -0.2500    -1.8950    -0.6510 ha         1 B1J       0.139000
     18 H5          -2.6810    -2.1530    -0.4480 ha         1 B1J       0.137500
     19 H6           5.1700    -0.3110    -0.9950 h1         1 B1J       0.039700
     20 H7           5.1980     0.2920     0.6560 h1         1 B1J       0.039700
     21 H8           5.5270    -2.0080     0.5640 ho         1 B1J       0.451000
     22 H1          -3.0360     1.9880     0.6130 ha         1 B1J       0.137500
@<TRIPOS>BOND
     1     1     2 1   
     2     1     5 1   
     3     1     6 1   
     4     2    11 2   
     5     3     4 ar  
     6     3    10 ar  
     7     3    22 1   
     8     4     5 ar  
     9     4    15 1   
    10     5     8 ar  
    11     6     7 2   
    12     6    16 1   
    13     7    11 1   
    14     7    12 1   
    15     8     9 ar  
    16     8    17 1   
    17     9    10 ar  
    18     9    18 1   
    19    10    14 1   
    20    12    13 1   
    21    12    19 1   
    22    12    20 1   
    23    13    21 1   
@<TRIPOS>SUBSTRUCTURE
     1 B1J         1 TEMP              0 ****  ****    0 ROOT
