@<TRIPOS>MOLECULE
B1K
   43    45     1     0     0
SMALL
No Charge or Current Charge


@<TRIPOS>ATOM
      1 C1           0.4910    -0.7690     0.1220 cc         1 B1K       0.533300
      2 C4          -1.6210    -0.6500     0.2680 cd         1 B1K       0.514000
      3 C6          -3.0250    -0.2210     0.1070 ca         1 B1K      -0.186500
      4 C7          -4.0700    -0.9060     0.7690 ca         1 B1K      -0.039000
      5 N3          -1.1470    -1.7140     1.0080 na         1 B1K      -0.193700
      6 N2           0.2220    -1.7950     0.9150 nd         1 B1K      -0.479800
      7 C13         -8.1410     0.4270     0.2430 c3         1 B1K       0.146900
      8 C9          -5.7190     0.6100    -0.2010 ca         1 B1K       0.165100
      9 C10         -4.6870     1.2930    -0.8580 ca         1 B1K      -0.179000
     10 C11         -3.3510     0.8860    -0.7080 ca         1 B1K      -0.039000
     11 C8          -5.4060    -0.4950     0.6170 ca         1 B1K      -0.179000
     12 N5          -0.5950    -0.0420    -0.2930 nc         1 B1K      -0.748000
     13 C12          1.8890    -0.3540    -0.3500 c6         1 B1K       0.117000
     14 O5           2.9460    -1.1850     0.2140 os         1 B1K      -0.419000
     15 C5           4.2830    -0.8880    -0.2710 c6         1 B1K       0.170300
     16 C15          5.2740    -1.9330     0.3420 c3         1 B1K       0.172600
     17 O6           4.9140    -3.3010     0.0570 oh         1 B1K      -0.708000
     18 C14          4.6610     0.5800     0.1010 c6         1 B1K       0.141300
     19 O4           5.9640     0.9520    -0.3890 oh         1 B1K      -0.720000
     20 C3           3.5900     1.5430    -0.4840 c6         1 B1K       0.137300
     21 O3           3.8730     2.9060    -0.1240 oh         1 B1K      -0.668000
     22 C2           2.1680     1.1450     0.0070 c6         1 B1K       0.120300
     23 O2           1.1860     2.0310    -0.5740 oh         1 B1K      -0.737000
     24 H1          -3.8570    -1.7620     1.4060 ha         1 B1K       0.122000
     25 H2          -1.7050    -2.3630     1.5520 hn         1 B1K       0.380000
     26 H3          -8.0500     0.4650     1.3360 h1         1 B1K       0.044700
     27 H4          -9.0690     0.9400    -0.0390 h1         1 B1K       0.044700
     28 H5          -8.2250    -0.6220    -0.0680 h1         1 B1K       0.044700
     29 H6          -4.9240     2.1460    -1.4890 ha         1 B1K       0.128500
     30 H7          -2.5710     1.4350    -1.2320 ha         1 B1K       0.122000
     31 H8          -6.1810    -1.0460     1.1410 ha         1 B1K       0.128500
     32 H9           1.9240    -0.4650    -1.4440 h1         1 B1K       0.064700
     33 H10          4.2970    -1.0040    -1.3640 h1         1 B1K       0.059700
     34 H11          6.2790    -1.7240    -0.0500 h1         1 B1K       0.035700
     35 H12          5.3100    -1.7720     1.4280 h1         1 B1K       0.035700
     36 H13          5.5590    -3.8730     0.5330 ho         1 B1K       0.501000
     37 H14          4.6400     0.6680     1.1980 h1         1 B1K       0.054700
     38 H15          5.9560     1.9410    -0.3900 ho         1 B1K       0.524000
     39 H16          3.6040     1.4440    -1.5800 h1         1 B1K       0.050700
     40 H17          3.0130     3.3730    -0.2430 ho         1 B1K       0.465000
     41 H18          2.1410     1.2340     1.1040 h1         1 B1K       0.056700
     42 H19          0.3300     1.5140    -0.5590 ho         1 B1K       0.547000
     43 O12         -7.0110     1.0580    -0.3870 os         1 B1K      -0.335100
@<TRIPOS>BOND
     1     1     6 2   
     2     1    12 1   
     3     1    13 1   
     4     2     3 1   
     5     2     5 1   
     6     2    12 2   
     7     3     4 ar  
     8     3    10 ar  
     9     4    11 ar  
    10     4    24 1   
    11     5     6 1   
    12     5    25 1   
    13     7    26 1   
    14     7    27 1   
    15     7    28 1   
    16     7    43 1   
    17     8     9 ar  
    18     8    11 ar  
    19     8    43 1   
    20     9    10 ar  
    21     9    29 1   
    22    10    30 1   
    23    11    31 1   
    24    13    14 1   
    25    13    22 1   
    26    13    32 1   
    27    14    15 1   
    28    15    16 1   
    29    15    18 1   
    30    15    33 1   
    31    16    17 1   
    32    16    34 1   
    33    16    35 1   
    34    17    36 1   
    35    18    19 1   
    36    18    20 1   
    37    18    37 1   
    38    19    38 1   
    39    20    21 1   
    40    20    22 1   
    41    20    39 1   
    42    21    40 1   
    43    22    23 1   
    44    22    41 1   
    45    23    42 1   
@<TRIPOS>SUBSTRUCTURE
     1 B1K         1 TEMP              0 ****  ****    0 ROOT
