@<TRIPOS>MOLECULE
B1K
   43    45     1     0     0
SMALL
bcc


@<TRIPOS>ATOM
      1 C1           0.5090    -0.7450    -0.1290 cc         1 B1K       0.533300
      2 C4          -1.5850    -0.6570     0.0800 cd         1 B1K       0.514000
      3 C6          -2.9810    -0.2480     0.0470 ca         1 B1K      -0.186500
      4 C7          -3.9810    -0.9730     0.6880 ca         1 B1K      -0.057000
      5 N3          -1.1140    -1.7990     0.5910 na         1 B1K      -0.143400
      6 N2           0.2160    -1.8710     0.4690 nd         1 B1K      -0.479800
      7 C13         -7.9490     0.3800     0.5030 c3         1 B1K       0.123700
      8 C9          -5.6520     0.5940    -0.0470 ca         1 B1K       0.165100
      9 C10         -4.6530     1.3280    -0.6950 ca         1 B1K      -0.197000
     10 C11         -3.3410     0.9110    -0.6460 ca         1 B1K      -0.057000
     11 C8          -5.3050    -0.5650     0.6470 ca         1 B1K      -0.197000
     12 N5          -0.5620     0.0350    -0.3900 nc         1 B1K      -0.748000
     13 C12          1.8920    -0.3240    -0.5120 c6         1 B1K       0.093800
     14 O5           2.7990    -1.0990     0.2200 os         1 B1K      -0.372600
     15 C5           4.1480    -0.8590    -0.1230 c6         1 B1K       0.147100
     16 C15          5.0030    -1.8350     0.6560 c3         1 B1K       0.149400
     17 O6           4.6690    -3.1460     0.2650 oh         1 B1K      -0.585800
     18 C14          4.5050     0.5930     0.1960 c6         1 B1K       0.118100
     19 O4           5.8400     0.8130    -0.1870 oh         1 B1K      -0.597800
     20 C3           3.5570     1.5240    -0.5490 c6         1 B1K       0.114100
     21 O3           3.8780     2.8430    -0.1740 oh         1 B1K      -0.605800
     22 C2           2.1080     1.1760    -0.2390 c6         1 B1K       0.097100
     23 O2           1.2890     1.9820    -1.0450 oh         1 B1K      -0.614800
     24 H1          -3.7490    -1.8730     1.2440 ha         1 B1K       0.140000
     25 H2          -1.6180    -2.5590     1.0200 hn         1 B1K       0.329700
     26 H3          -7.7980     0.3300     1.5840 h1         1 B1K       0.044700
     27 H4          -8.8580     0.9420     0.3010 h1         1 B1K       0.044700
     28 H5          -8.0680    -0.6340     0.1140 h1         1 B1K       0.044700
     29 H6          -4.9180     2.2280    -1.2350 ha         1 B1K       0.146500
     30 H7          -2.5820     1.4910    -1.1560 ha         1 B1K       0.140000
     31 H8          -6.0460    -1.1570     1.1640 ha         1 B1K       0.146500
     32 H9           2.0210    -0.4910    -1.5960 h1         1 B1K       0.064700
     33 H10          4.2980    -1.0290    -1.2020 h1         1 B1K       0.059700
     34 H11          6.0550    -1.6090     0.4540 h1         1 B1K       0.035700
     35 H12          4.8390    -1.6740     1.7310 h1         1 B1K       0.035700
     36 H13          5.3010    -3.7450     0.6710 ho         1 B1K       0.402000
     37 H14          4.3740     0.7490     1.2790 h1         1 B1K       0.054700
     38 H15          6.0560     1.7320     0.0000 ho         1 B1K       0.425000
     39 H16          3.7170     1.3760    -1.6300 h1         1 B1K       0.050700
     40 H17          3.4530     3.4490    -0.7870 ho         1 B1K       0.426000
     41 H18          1.9220     1.3540     0.8330 h1         1 B1K       0.056700
     42 H19          0.3720     1.6960    -0.8990 ho         1 B1K       0.448000
     43 O12         -6.8980     1.0730    -0.1440 os         1 B1K      -0.311900
@<TRIPOS>BOND
     1     1     6 2   
     2     1    12 1   
     3     1    13 1   
     4     2     3 1   
     5     2     5 1   
     6     2    12 2   
     7     3     4 ar  
     8     3    10 ar  
     9     4    11 ar  
    10     4    24 1   
    11     5     6 1   
    12     5    25 1   
    13     7    26 1   
    14     7    27 1   
    15     7    28 1   
    16     7    43 1   
    17     8     9 ar  
    18     8    11 ar  
    19     8    43 1   
    20     9    10 ar  
    21     9    29 1   
    22    10    30 1   
    23    11    31 1   
    24    13    14 1   
    25    13    22 1   
    26    13    32 1   
    27    14    15 1   
    28    15    16 1   
    29    15    18 1   
    30    15    33 1   
    31    16    17 1   
    32    16    34 1   
    33    16    35 1   
    34    17    36 1   
    35    18    19 1   
    36    18    20 1   
    37    18    37 1   
    38    19    38 1   
    39    20    21 1   
    40    20    22 1   
    41    20    39 1   
    42    21    40 1   
    43    22    23 1   
    44    22    41 1   
    45    23    42 1   
@<TRIPOS>SUBSTRUCTURE
     1 B1K         1 TEMP              0 ****  ****    0 ROOT
