@<TRIPOS>MOLECULE
B1L
   49    51     1     0     0
SMALL
bcc


@<TRIPOS>ATOM
      1 O1           5.3770    -1.3570    -1.0180 oh         1 B1L      -0.492100
      2 C1           4.2660    -0.8790    -0.4330 ca         1 B1L       0.160100
      3 C2           4.2360     0.3420     0.2400 ca         1 B1L      -0.207000
      4 C3           3.0580     0.7840     0.8140 ca         1 B1L      -0.047000
      5 C4           1.8970     0.0180     0.7570 ca         1 B1L      -0.193600
      6 C5           1.9410    -1.2000     0.0780 ca         1 B1L      -0.047000
      7 C6           3.1060    -1.6460    -0.5160 ca         1 B1L      -0.207000
      8 C7           0.6550     0.5690     1.3650 c          1 B1L       0.692700
      9 O7           0.5060     1.7730     1.5200 o          1 B1L      -0.600100
     10 N8          -0.2790    -0.3330     1.7410 ns         1 B1L      -0.577900
     11 C8          -1.5860     0.0370     2.2300 c3         1 B1L       0.094700
     12 C9          -2.6350     0.0360     1.0890 c3         1 B1L       0.138100
     13 C10         -3.7700     1.0280     1.2890 c3         1 B1L      -0.074400
     14 C11         -4.4430     0.9850     2.6680 c3         1 B1L      -0.073400
     15 C12         -4.3800    -0.3400     3.4230 c3         1 B1L       0.163800
     16 N13         -3.1140    -0.5060     4.1200 n7         1 B1L      -0.817200
     17 C14         -1.9870    -0.9490     3.3300 c3         1 B1L       0.153800
     18 O9          -2.0030     0.3910    -0.1430 os         1 B1L      -0.411900
     19 C15         -1.4970    -0.5670    -0.9140 c          1 B1L       0.670700
     20 O15         -1.7320    -1.7460    -0.7670 o          1 B1L      -0.563000
     21 C16         -0.6120    -0.0370    -1.9670 ca         1 B1L      -0.194600
     22 C17         -0.2030     1.2970    -2.0070 ca         1 B1L      -0.028000
     23 C18          0.6720     1.7390    -2.9790 ca         1 B1L      -0.214500
     24 C19          1.1560     0.8490    -3.9380 ca         1 B1L       0.172100
     25 C20          0.7530    -0.4860    -3.9080 ca         1 B1L      -0.214500
     26 C21         -0.1170    -0.9180    -2.9280 ca         1 B1L      -0.028000
     27 O19          2.0050     1.3250    -4.8610 oh         1 B1L      -0.488100
     28 HO1          6.1120    -0.7450    -0.8980 ho         1 B1L       0.429000
     29 H2           5.1320     0.9480     0.3120 ha         1 B1L       0.142500
     30 H3           3.0480     1.7380     1.3230 ha         1 B1L       0.146000
     31 H5           1.0560    -1.8130    -0.0290 ha         1 B1L       0.146000
     32 H6           3.1190    -2.5860    -1.0530 ha         1 B1L       0.142500
     33 HN8         -0.0580    -1.3150     1.6960 hn         1 B1L       0.318500
     34 H8          -1.5090     1.0400     2.6550 h1         1 B1L       0.103700
     35 H9          -3.0410    -0.9750     0.9990 h1         1 B1L       0.062700
     36 H101        -4.5140     0.8340     0.5120 hc         1 B1L       0.055700
     37 H102        -3.3910     2.0370     1.1090 hc         1 B1L       0.055700
     38 H111        -5.4900     1.2620     2.5350 hc         1 B1L       0.051700
     39 H112        -4.0090     1.7450     3.3210 hc         1 B1L       0.051700
     40 H121        -4.6250    -1.1810     2.7540 h1         1 B1L       0.031700
     41 H122        -5.1580    -0.3280     4.1870 h1         1 B1L       0.031700
     42 H13         -3.2400    -1.1650     4.8760 hn         1 B1L       0.363800
     43 H141        -2.1480    -1.9350     2.8600 h1         1 B1L       0.035700
     44 H142        -1.1390    -1.0580     4.0090 h1         1 B1L       0.035700
     45 H17         -0.5530     2.0010    -1.2660 ha         1 B1L       0.155500
     46 H18          0.9890     2.7740    -2.9990 ha         1 B1L       0.144000
     47 H20          1.1250    -1.1860    -4.6470 ha         1 B1L       0.144000
     48 H21         -0.4130    -1.9580    -2.9110 ha         1 B1L       0.155500
     49 H19          2.2710     0.6260    -5.4700 ho         1 B1L       0.430000
@<TRIPOS>BOND
     1     1     2 1   
     2     1    28 1   
     3     2     3 ar  
     4     2     7 ar  
     5     3     4 ar  
     6     3    29 1   
     7     4     5 ar  
     8     4    30 1   
     9     5     6 ar  
    10     5     8 1   
    11     6     7 ar  
    12     6    31 1   
    13     7    32 1   
    14     8     9 2   
    15     8    10 1   
    16    10    11 1   
    17    10    33 1   
    18    11    12 1   
    19    11    17 1   
    20    11    34 1   
    21    12    13 1   
    22    12    18 1   
    23    12    35 1   
    24    13    14 1   
    25    13    36 1   
    26    13    37 1   
    27    14    15 1   
    28    14    38 1   
    29    14    39 1   
    30    15    16 1   
    31    15    40 1   
    32    15    41 1   
    33    16    17 1   
    34    16    42 1   
    35    17    43 1   
    36    17    44 1   
    37    18    19 1   
    38    19    20 2   
    39    19    21 1   
    40    21    22 ar  
    41    21    26 ar  
    42    22    23 ar  
    43    22    45 1   
    44    23    24 ar  
    45    23    46 1   
    46    24    25 ar  
    47    24    27 1   
    48    25    26 ar  
    49    25    47 1   
    50    26    48 1   
    51    27    49 1   
@<TRIPOS>SUBSTRUCTURE
     1 B1L         1 TEMP              0 ****  ****    0 ROOT
