@<TRIPOS>MOLECULE
B1L
   49    51     1     0     0
SMALL
No Charge or Current Charge


@<TRIPOS>ATOM
      1 O1           5.0810    -1.4520    -1.5680 oh         1 B1L      -0.531100
      2 C1           4.0370    -0.9970    -0.8210 ca         1 B1L       0.160100
      3 C2           3.9090     0.3700    -0.5410 ca         1 B1L      -0.189000
      4 C3           2.8280     0.8330     0.2290 ca         1 B1L      -0.029000
      5 C4           1.8600    -0.0670     0.7300 ca         1 B1L      -0.193600
      6 C5           2.0040    -1.4470     0.4400 ca         1 B1L      -0.029000
      7 C6           3.0880    -1.9020    -0.3300 ca         1 B1L      -0.189000
      8 C7           0.6840     0.4750     1.5130 c          1 B1L       0.625700
      9 O7           0.5770     1.6630     1.7840 o          1 B1L      -0.600100
     10 N8          -0.2850    -0.4350     1.8780 ns         1 B1L      -0.510900
     11 C8          -1.6490    -0.0680     2.3080 c3         1 B1L       0.094700
     12 C9          -2.6640     0.0020     1.1120 c3         1 B1L       0.161300
     13 C10         -3.8100     1.0240     1.3080 c3         1 B1L      -0.074400
     14 C11         -4.4470     1.0860     2.7190 c3         1 B1L      -0.073400
     15 C12         -4.5520    -0.2600     3.4680 c3         1 B1L       0.163800
     16 N13         -3.2990    -0.5570     4.1970 n7         1 B1L      -0.872400
     17 C14         -2.1370    -1.0460     3.4150 c3         1 B1L       0.153800
     18 O9          -1.9820     0.3930    -0.1040 os         1 B1L      -0.435100
     19 C15         -1.3570    -0.5650    -0.8670 c          1 B1L       0.621700
     20 O15         -1.4510    -1.7670    -0.6550 o          1 B1L      -0.514000
     21 C16         -0.4050     0.0070    -1.8870 ca         1 B1L      -0.194600
     22 C17         -0.2440     1.4030    -2.0410 ca         1 B1L      -0.010000
     23 C18          0.6850     1.9110    -2.9660 ca         1 B1L      -0.196500
     24 C19          1.4600     1.0390    -3.7400 ca         1 B1L       0.172100
     25 C20          1.3090    -0.3470    -3.5960 ca         1 B1L      -0.196500
     26 C21          0.3810    -0.8630    -2.6740 ca         1 B1L      -0.010000
     27 O19          2.3570     1.5450    -4.6300 oh         1 B1L      -0.527100
     28 HO1          5.6410    -0.6860    -1.8140 ho         1 B1L       0.468000
     29 H2           4.6380     1.0820    -0.9200 ha         1 B1L       0.124500
     30 H3           2.7400     1.9000     0.4250 ha         1 B1L       0.128000
     31 H5           1.2860    -2.1810     0.7970 ha         1 B1L       0.128000
     32 H6           3.1890    -2.9620    -0.5490 ha         1 B1L       0.124500
     33 HN8         -0.1200    -1.3970     1.6140 hn         1 B1L       0.318500
     34 H8          -1.5940     0.9300     2.7640 h1         1 B1L       0.103700
     35 H9          -3.1280    -0.9870     0.9890 h1         1 B1L       0.062700
     36 H101        -4.5950     0.7880     0.5800 hc         1 B1L       0.055700
     37 H102        -3.4480     2.0290     1.0530 hc         1 B1L       0.055700
     38 H111        -5.4550     1.5050     2.6150 hc         1 B1L       0.051700
     39 H112        -3.8920     1.8010     3.3400 hc         1 B1L       0.051700
     40 H121        -4.8290    -1.0700     2.7790 h1         1 B1L       0.031700
     41 H122        -5.3670    -0.1640     4.1990 h1         1 B1L       0.031700
     42 H13         -3.5140    -1.2750     4.9020 hn         1 B1L       0.419000
     43 H141        -2.3670    -2.0170     2.9550 h1         1 B1L       0.035700
     44 H142        -1.3000    -1.2150     4.1060 h1         1 B1L       0.035700
     45 H17         -0.8260     2.1030    -1.4440 ha         1 B1L       0.137500
     46 H18          0.8050     2.9850    -3.0770 ha         1 B1L       0.126000
     47 H20          1.9090    -1.0330    -4.1890 ha         1 B1L       0.126000
     48 H21          0.2850    -1.9420    -2.5660 ha         1 B1L       0.137500
     49 H19          2.8000     0.7950    -5.0800 ho         1 B1L       0.469000
@<TRIPOS>BOND
     1     1     2 1   
     2     1    28 1   
     3     2     3 ar  
     4     2     7 ar  
     5     3     4 ar  
     6     3    29 1   
     7     4     5 ar  
     8     4    30 1   
     9     5     6 ar  
    10     5     8 1   
    11     6     7 ar  
    12     6    31 1   
    13     7    32 1   
    14     8     9 2   
    15     8    10 1   
    16    10    11 1   
    17    10    33 1   
    18    11    12 1   
    19    11    17 1   
    20    11    34 1   
    21    12    13 1   
    22    12    18 1   
    23    12    35 1   
    24    13    14 1   
    25    13    36 1   
    26    13    37 1   
    27    14    15 1   
    28    14    38 1   
    29    14    39 1   
    30    15    16 1   
    31    15    40 1   
    32    15    41 1   
    33    16    17 1   
    34    16    42 1   
    35    17    43 1   
    36    17    44 1   
    37    18    19 1   
    38    19    20 2   
    39    19    21 1   
    40    21    22 ar  
    41    21    26 ar  
    42    22    23 ar  
    43    22    45 1   
    44    23    24 ar  
    45    23    46 1   
    46    24    25 ar  
    47    24    27 1   
    48    25    26 ar  
    49    25    47 1   
    50    26    48 1   
    51    27    49 1   
@<TRIPOS>SUBSTRUCTURE
     1 B1L         1 TEMP              0 ****  ****    0 ROOT
