@<TRIPOS>MOLECULE
B1N
   40    42     1     0     0
SMALL
bcc


@<TRIPOS>ATOM
      1 O5          -2.4100    -0.9980     0.4510 os         1 B1N      -0.404600
      2 C5          -3.7880    -0.6740     0.4740 c6         1 B1N       0.151100
      3 C4          -4.1630     0.0370    -0.8290 c6         1 B1N       0.121100
      4 O4          -5.5200     0.3940    -0.7510 oh         1 B1N      -0.596800
      5 C3          -3.2800     1.2640    -1.0260 c6         1 B1N       0.115100
      6 O3          -3.6100     1.8220    -2.2750 oh         1 B1N      -0.602800
      7 C2          -1.8070     0.8900    -0.9380 c6         1 B1N       0.104100
      8 O2          -1.0490     2.0680    -0.9960 oh         1 B1N      -0.607800
      9 C1          -1.5840     0.1300     0.3780 c6         1 B1N       0.076800
     10 C8           5.6680    -0.7010     0.2140 ca         1 B1N      -0.205000
     11 C6           3.3180    -0.1340     0.1570 ca         1 B1N      -0.165500
     12 N2           0.2140    -1.5040     1.0030 na         1 B1N      -0.109400
     13 N3           1.5440    -1.6130     0.9630 nc         1 B1N      -0.529800
     14 C12          1.9220    -0.4800     0.4130 cd         1 B1N       0.611500
     15 C11          3.6510     1.0990    -0.3980 ca         1 B1N      -0.054500
     16 C10          4.9700     1.4370    -0.6470 ca         1 B1N      -0.205000
     17 C9           5.9900     0.5370    -0.3440 ca         1 B1N       0.152100
     18 O12          7.2880     0.8080    -0.5650 oh         1 B1N      -0.492100
     19 C7           4.3480    -1.0260     0.4590 ca         1 B1N      -0.054500
     20 N5           0.8850     0.3380     0.1040 nd         1 B1N      -0.744000
     21 C13         -0.1740    -0.3390     0.4900 cc         1 B1N       0.429800
     22 C14         -4.5610    -1.9610     0.6610 c3         1 B1N       0.146400
     23 O6          -4.2040    -2.5300     1.8970 oh         1 B1N      -0.593800
     24 H1          -3.9950     0.0020     1.3190 h1         1 B1N       0.064700
     25 H2          -3.9830    -0.6600    -1.6630 h1         1 B1N       0.056700
     26 H3          -5.7590     0.8450    -1.5670 ho         1 B1N       0.429000
     27 H4          -3.4980     1.9740    -0.2120 h1         1 B1N       0.052700
     28 H5          -3.2470     2.7110    -2.3220 ho         1 B1N       0.429000
     29 H6          -1.5620     0.2080    -1.7680 h1         1 B1N       0.060700
     30 H7          -0.1170     1.8200    -0.8880 ho         1 B1N       0.450000
     31 H8          -1.7850     0.8210     1.2140 h1         1 B1N       0.073700
     32 H10         -0.3570    -2.2470     1.3770 hn         1 B1N       0.347700
     33 H11          2.8720     1.8100    -0.6410 ha         1 B1N       0.147500
     34 H12          5.2050     2.4020    -1.0800 ha         1 B1N       0.141000
     35 H13          7.3870     1.6790    -0.9670 ho         1 B1N       0.427000
     36 H14          4.1160    -1.9920     0.8900 ha         1 B1N       0.147500
     37 H15         -5.6300    -1.7270     0.6150 h1         1 B1N       0.040700
     38 H16         -4.3420    -2.6350    -0.1790 h1         1 B1N       0.040700
     39 H17         -4.7860    -3.2770     2.0580 ho         1 B1N       0.409000
     40 H9           6.4570    -1.4040     0.4520 ha         1 B1N       0.141000
@<TRIPOS>BOND
     1     1     2 1   
     2     1     9 1   
     3     2     3 1   
     4     2    22 1   
     5     2    24 1   
     6     3     4 1   
     7     3     5 1   
     8     3    25 1   
     9     4    26 1   
    10     5     6 1   
    11     5     7 1   
    12     5    27 1   
    13     6    28 1   
    14     7     8 1   
    15     7     9 1   
    16     7    29 1   
    17     8    30 1   
    18     9    21 1   
    19     9    31 1   
    20    10    17 ar  
    21    10    19 ar  
    22    10    40 1   
    23    11    14 1   
    24    11    15 ar  
    25    11    19 ar  
    26    12    13 1   
    27    12    21 1   
    28    12    32 1   
    29    13    14 2   
    30    14    20 1   
    31    15    16 ar  
    32    15    33 1   
    33    16    17 ar  
    34    16    34 1   
    35    17    18 1   
    36    18    35 1   
    37    19    36 1   
    38    20    21 2   
    39    22    23 1   
    40    22    37 1   
    41    22    38 1   
    42    23    39 1   
@<TRIPOS>SUBSTRUCTURE
     1 B1N         1 TEMP              0 ****  ****    0 ROOT
