@<TRIPOS>MOLECULE
B1N
   40    42     1     0     0
SMALL
No Charge or Current Charge


@<TRIPOS>ATOM
      1 O5          -2.5110    -1.0210     0.5200 os         1 B1N      -0.451000
      2 C5          -3.9170    -0.6500     0.5340 c6         1 B1N       0.174300
      3 C4          -4.2940     0.0430    -0.8140 c6         1 B1N       0.144300
      4 O4          -5.6660     0.4800    -0.8410 oh         1 B1N      -0.719000
      5 C3          -3.3520     1.2610    -1.0460 c6         1 B1N       0.138300
      6 O3          -3.6330     1.8930    -2.3070 oh         1 B1N      -0.665000
      7 C2          -1.8630     0.8120    -0.9880 c6         1 B1N       0.127300
      8 O2          -0.9890     1.9450    -1.1730 oh         1 B1N      -0.730000
      9 C1          -1.5910     0.0960     0.3720 c6         1 B1N       0.100000
     10 C8           5.7920    -0.6650     0.1880 ca         1 B1N      -0.187000
     11 C6           3.4040    -0.1250     0.1400 ca         1 B1N      -0.165500
     12 N2           0.2750    -1.5740     0.8990 na         1 B1N      -0.159700
     13 N3           1.6360    -1.6870     0.8570 nc         1 B1N      -0.529800
     14 C12          1.9940    -0.5050     0.3760 cd         1 B1N       0.611500
     15 C11          3.7310     1.1550    -0.3640 ca         1 B1N      -0.036500
     16 C10          5.0710     1.5170    -0.5880 ca         1 B1N      -0.187000
     17 C9           6.1010     0.6060    -0.3120 ca         1 B1N       0.152100
     18 O12          7.4010     0.9490    -0.5260 oh         1 B1N      -0.531100
     19 C7           4.4540    -1.0320     0.4140 ca         1 B1N      -0.036500
     20 N5           0.9350     0.3460     0.1100 nd         1 B1N      -0.744000
     21 C13         -0.1400    -0.3500     0.4510 cc         1 B1N       0.429800
     22 C14         -4.7630    -1.9400     0.8000 c3         1 B1N       0.169600
     23 O6          -4.3840    -2.6360     2.0070 oh         1 B1N      -0.716000
     24 H1          -4.0910     0.0490     1.3650 h1         1 B1N       0.064700
     25 H2          -4.1210    -0.6810    -1.6250 h1         1 B1N       0.056700
     26 H3          -5.7010     1.1530    -1.5650 ho         1 B1N       0.528000
     27 H4          -3.5170     1.9810    -0.2300 h1         1 B1N       0.052700
     28 H5          -2.8220     2.4170    -2.5070 ho         1 B1N       0.468000
     29 H6          -1.6910     0.0790    -1.7920 h1         1 B1N       0.060700
     30 H7          -0.0960     1.6400    -0.8470 ho         1 B1N       0.549000
     31 H8          -1.7800     0.8050     1.1910 h1         1 B1N       0.073700
     32 H10         -0.3390    -2.3170     1.2220 hn         1 B1N       0.398000
     33 H11          2.9470     1.8780    -0.5850 ha         1 B1N       0.129500
     34 H12          5.3000     2.5060    -0.9770 ha         1 B1N       0.123000
     35 H13          7.4250     1.8660    -0.8740 ho         1 B1N       0.466000
     36 H14          4.2390    -2.0260     0.8030 ha         1 B1N       0.129500
     37 H15         -5.8220    -1.6500     0.8530 h1         1 B1N       0.040700
     38 H16         -4.6520    -2.6030    -0.0680 h1         1 B1N       0.040700
     39 H17         -4.9360    -3.4510     2.0550 ho         1 B1N       0.508000
     40 H9           6.5910    -1.3710     0.4030 ha         1 B1N       0.123000
@<TRIPOS>BOND
     1     1     2 1   
     2     1     9 1   
     3     2     3 1   
     4     2    22 1   
     5     2    24 1   
     6     3     4 1   
     7     3     5 1   
     8     3    25 1   
     9     4    26 1   
    10     5     6 1   
    11     5     7 1   
    12     5    27 1   
    13     6    28 1   
    14     7     8 1   
    15     7     9 1   
    16     7    29 1   
    17     8    30 1   
    18     9    21 1   
    19     9    31 1   
    20    10    17 ar  
    21    10    19 ar  
    22    10    40 1   
    23    11    14 1   
    24    11    15 ar  
    25    11    19 ar  
    26    12    13 1   
    27    12    21 1   
    28    12    32 1   
    29    13    14 2   
    30    14    20 1   
    31    15    16 ar  
    32    15    33 1   
    33    16    17 ar  
    34    16    34 1   
    35    17    18 1   
    36    18    35 1   
    37    19    36 1   
    38    20    21 2   
    39    22    23 1   
    40    22    37 1   
    41    22    38 1   
    42    23    39 1   
@<TRIPOS>SUBSTRUCTURE
     1 B1N         1 TEMP              0 ****  ****    0 ROOT
