@<TRIPOS>MOLECULE
B1O
   50    53     1     0     0
SMALL
No Charge or Current Charge


@<TRIPOS>ATOM
      1 O1          -4.7070     1.0630     0.5410 os         1 B1O      -0.235200
      2 C2          -3.4100     1.4540     0.7930 ca         1 B1O       0.046100
      3 C3          -2.3500     1.0970    -0.0790 ca         1 B1O       0.168000
      4 C4          -1.8360     2.6680     2.2270 ca         1 B1O      -0.058000
      5 C5          -3.1510     2.2440     1.9350 ca         1 B1O      -0.123000
      6 C6          -0.8010     2.2940     1.3580 ca         1 B1O       0.094400
      7 C7          -1.0530     1.5380     0.2460 ca         1 B1O      -0.122200
      8 N8           0.1550     1.3630    -0.3760 na         1 B1O      -0.141600
      9 C9           1.1190     2.0250     0.3960 cc         1 B1O       0.442800
     10 N10          0.5490     2.6130     1.4720 nd         1 B1O      -0.576100
     11 C11          2.5940     2.0880     0.0600 c3         1 B1O       0.146300
     12 O12          3.1700     0.7650     0.1470 os         1 B1O      -0.355100
     13 C13          0.3310     0.5940    -1.6220 c3         1 B1O       0.062900
     14 C14          4.4980     0.5210    -0.1350 ca         1 B1O       0.084100
     15 C15          5.3900     1.5450    -0.5180 ca         1 B1O      -0.219000
     16 C16          6.7300     1.2340    -0.7930 ca         1 B1O      -0.116000
     17 C17          7.1870    -0.0900    -0.6900 ca         1 B1O      -0.108000
     18 C18          6.3080    -1.1310    -0.3080 ca         1 B1O      -0.104600
     19 C19          4.9580    -0.8020    -0.0330 ca         1 B1O      -0.109000
     20 C20          6.7990    -2.5680    -0.1950 c          1 B1O       0.712600
     21 O21          6.0020    -3.4350     0.1390 o          1 B1O      -0.714500
     22 O22          7.9730    -2.8080    -0.4420 o          1 B1O      -0.714500
     23 C23         -5.0590    -0.2560     0.3290 ca         1 B1O       0.076100
     24 C24         -4.3640    -1.3030     0.9650 ca         1 B1O      -0.135000
     25 C25         -4.7780    -2.6230     0.7130 ca         1 B1O      -0.131000
     26 C26         -6.1480    -0.5790    -0.5190 ca         1 B1O       0.346300
     27 N27         -6.5440    -1.8550    -0.7580 nb         1 B1O      -0.669000
     28 C28         -5.8640    -2.8550    -0.1530 ca         1 B1O       0.325300
     29 C29         -6.3460    -4.2640    -0.4460 c3         1 B1O      -0.134400
     30 F30         -2.5830     0.3690    -1.1960 f          1 B1O      -0.163000
     31 C31         -6.9430     0.5080    -1.2270 c3         1 B1O      -0.134400
     32 H1          -1.6270     3.2730     3.1060 ha         1 B1O       0.134000
     33 H2          -3.9680     2.5240     2.5960 ha         1 B1O       0.127000
     34 H3           2.7040     2.4940    -0.9530 h1         1 B1O       0.055200
     35 H4           3.0910     2.7720     0.7590 h1         1 B1O       0.055200
     36 H5          -0.2730     1.0420    -2.4200 h1         1 B1O       0.064033
     37 H6           1.3840     0.5970    -1.9290 h1         1 B1O       0.064033
     38 H7           0.0110    -0.4430    -1.4620 h1         1 B1O       0.064033
     39 H8           5.0660     2.5780    -0.6050 ha         1 B1O       0.088000
     40 H9           7.4200     2.0220    -1.0880 ha         1 B1O       0.086000
     41 H10          8.2310    -0.3070    -0.9090 ha         1 B1O       0.131000
     42 H11          4.2560    -1.5770     0.2630 ha         1 B1O       0.142000
     43 H13         -3.5320    -1.1050     1.6370 ha         1 B1O       0.137000
     44 H14         -4.2660    -3.4580     1.1850 ha         1 B1O       0.123000
     45 H15         -7.2180    -4.5120     0.1690 hc         1 B1O       0.045700
     46 H16         -6.6320    -4.3770    -1.4990 hc         1 B1O       0.045700
     47 H17         -5.5650    -5.0040    -0.2360 hc         1 B1O       0.045700
     48 H18         -6.2900     1.1080    -1.8710 hc         1 B1O       0.050700
     49 H19         -7.7400     0.0930    -1.8550 hc         1 B1O       0.050700
     50 H20         -7.4090     1.1820    -0.5000 hc         1 B1O       0.050700
@<TRIPOS>BOND
     1     1     2 1   
     2     1    23 1   
     3     2     3 ar  
     4     2     5 ar  
     5     3     7 ar  
     6     3    30 1   
     7     4     5 ar  
     8     4     6 ar  
     9     4    32 1   
    10     5    33 1   
    11     6     7 ar  
    12     6    10 1   
    13     7     8 1   
    14     8     9 1   
    15     8    13 1   
    16     9    10 2   
    17     9    11 1   
    18    11    12 1   
    19    11    34 1   
    20    11    35 1   
    21    12    14 1   
    22    13    36 1   
    23    13    37 1   
    24    13    38 1   
    25    14    15 ar  
    26    14    19 ar  
    27    15    16 ar  
    28    15    39 1   
    29    16    17 ar  
    30    16    40 1   
    31    17    18 ar  
    32    17    41 1   
    33    18    19 ar  
    34    18    20 1   
    35    19    42 1   
    36    20    21 1   
    37    20    22 1   
    38    23    24 ar  
    39    23    26 ar  
    40    24    25 ar  
    41    24    43 1   
    42    25    28 ar  
    43    25    44 1   
    44    26    27 ar  
    45    26    31 1   
    46    27    28 ar  
    47    28    29 1   
    48    29    45 1   
    49    29    46 1   
    50    29    47 1   
    51    31    48 1   
    52    31    49 1   
    53    31    50 1   
@<TRIPOS>SUBSTRUCTURE
     1 B1O         1 TEMP              0 ****  ****    0 ROOT
