@<TRIPOS>MOLECULE
B1O
   50    53     1     0     0
SMALL
bcc


@<TRIPOS>ATOM
      1 O1          -4.5350     0.9860    -0.0450 os         1 B1O      -0.235200
      2 C2          -3.2880     1.3170     0.4120 ca         1 B1O       0.046100
      3 C3          -2.1940     1.0810    -0.3960 ca         1 B1O       0.132900
      4 C4          -1.9020     2.3090     2.1300 ca         1 B1O      -0.076000
      5 C5          -3.1420     1.9230     1.6660 ca         1 B1O      -0.141000
      6 C6          -0.7930     2.0730     1.3170 ca         1 B1O       0.094400
      7 C7          -0.9420     1.4650     0.0590 ca         1 B1O      -0.122200
      8 N8           0.3160     1.3940    -0.4720 na         1 B1O      -0.112300
      9 C9           1.1500     1.9320     0.4630 cc         1 B1O       0.442800
     10 N10          0.5310     2.3450     1.5340 nd         1 B1O      -0.576100
     11 C11          2.6220     2.0340     0.2710 c3         1 B1O       0.123100
     12 O12          3.1340     0.7200     0.1910 os         1 B1O      -0.331900
     13 C13          0.6710     0.8600    -1.7720 c3         1 B1O       0.033600
     14 C14          4.4580     0.5590    -0.0540 ca         1 B1O       0.084100
     15 C15          5.3700     1.6070    -0.1280 ca         1 B1O      -0.237000
     16 C16          6.7090     1.3170    -0.3750 ca         1 B1O      -0.134000
     17 C17          7.1390     0.0130    -0.5470 ca         1 B1O      -0.126000
     18 C18          6.2240    -1.0390    -0.4770 ca         1 B1O      -0.104600
     19 C19          4.8890    -0.7540    -0.2330 ca         1 B1O      -0.127000
     20 C20          6.6780    -2.4830    -0.6680 c          1 B1O       0.923200
     21 O21          5.7930    -3.3590    -0.6130 o          1 B1O      -0.819800
     22 O22          7.8940    -2.6610    -0.8640 o          1 B1O      -0.819800
     23 C23         -4.9570    -0.3060     0.0720 ca         1 B1O       0.010800
     24 C24         -4.2890    -1.2860     0.7800 ca         1 B1O      -0.153000
     25 C25         -4.8450    -2.5580     0.8290 ca         1 B1O      -0.214300
     26 C26         -6.1640    -0.6200    -0.5640 ca         1 B1O       0.411600
     27 N27         -6.6710    -1.8410    -0.4990 nb         1 B1O      -0.669000
     28 C28         -6.0410    -2.8050     0.1750 ca         1 B1O       0.390600
     29 C29         -6.6860    -4.1580     0.1860 c3         1 B1O      -0.134400
     30 F30         -2.3540     0.4820    -1.5810 f          1 B1O      -0.127900
     31 C31         -6.9130     0.4180    -1.3420 c3         1 B1O      -0.134400
     32 H1          -1.7900     2.7800     3.0980 ha         1 B1O       0.152000
     33 H2          -4.0290     2.0880     2.2640 ha         1 B1O       0.145000
     34 H3           2.8560     2.6060    -0.6350 h1         1 B1O       0.055200
     35 H4           3.0340     2.5790     1.1250 h1         1 B1O       0.055200
     36 H5           0.0740     1.3330    -2.5480 h1         1 B1O       0.064033
     37 H6           1.7150     1.0620    -1.9800 h1         1 B1O       0.064033
     38 H7           0.5160    -0.2170    -1.8010 h1         1 B1O       0.064033
     39 H8           5.0700     2.6370     0.0080 ha         1 B1O       0.106000
     40 H9           7.4180     2.1330    -0.4310 ha         1 B1O       0.104000
     41 H10          8.1830    -0.1940    -0.7350 ha         1 B1O       0.149000
     42 H11          4.1670    -1.5590    -0.1810 ha         1 B1O       0.160000
     43 H13         -3.3570    -1.0840     1.2930 ha         1 B1O       0.155000
     44 H14         -4.3450    -3.3450     1.3780 ha         1 B1O       0.141000
     45 H15         -7.7080    -4.0990     0.5620 hc         1 B1O       0.045700
     46 H16         -6.7370    -4.5740    -0.8210 hc         1 B1O       0.045700
     47 H17         -6.1360    -4.8590     0.8120 hc         1 B1O       0.045700
     48 H18         -6.3350     0.7640    -2.2010 hc         1 B1O       0.050700
     49 H19         -7.8480     0.0010    -1.7070 hc         1 B1O       0.050700
     50 H20         -7.1410     1.2960    -0.7370 hc         1 B1O       0.050700
@<TRIPOS>BOND
     1     1     2 1   
     2     1    23 1   
     3     2     3 ar  
     4     2     5 ar  
     5     3     7 ar  
     6     3    30 1   
     7     4     5 ar  
     8     4     6 ar  
     9     4    32 1   
    10     5    33 1   
    11     6     7 ar  
    12     6    10 1   
    13     7     8 1   
    14     8     9 1   
    15     8    13 1   
    16     9    10 2   
    17     9    11 1   
    18    11    12 1   
    19    11    34 1   
    20    11    35 1   
    21    12    14 1   
    22    13    36 1   
    23    13    37 1   
    24    13    38 1   
    25    14    15 ar  
    26    14    19 ar  
    27    15    16 ar  
    28    15    39 1   
    29    16    17 ar  
    30    16    40 1   
    31    17    18 ar  
    32    17    41 1   
    33    18    19 ar  
    34    18    20 1   
    35    19    42 1   
    36    20    21 1   
    37    20    22 1   
    38    23    24 ar  
    39    23    26 ar  
    40    24    25 ar  
    41    24    43 1   
    42    25    28 ar  
    43    25    44 1   
    44    26    27 ar  
    45    26    31 1   
    46    27    28 ar  
    47    28    29 1   
    48    29    45 1   
    49    29    46 1   
    50    29    47 1   
    51    31    48 1   
    52    31    49 1   
    53    31    50 1   
@<TRIPOS>SUBSTRUCTURE
     1 B1O         1 TEMP              0 ****  ****    0 ROOT
