@<TRIPOS>MOLECULE
B1Q
   55    58     1     0     0
SMALL
abcg2


@<TRIPOS>ATOM
      1 N1           3.4550    -0.4150    -0.0870 n          1 B1Q      -0.417800
      2 C2           2.0210    -0.3060    -0.2990 c6         1 B1Q       0.123700
      3 N3          -0.1480    -1.3760    -0.0190 n3         1 B1Q      -0.725600
      4 C4          -0.7600    -0.1430     0.4550 c6         1 B1Q       0.236800
      5 C5           4.0870    -0.3540     1.1050 c          1 B1Q       0.556000
      6 C6          -2.2530    -0.1320     0.1890 ca         1 B1Q      -0.070300
      7 C7           1.2490    -1.4490     0.3540 c6         1 B1Q       0.151800
      8 C8          -0.0460     1.0380    -0.2040 c6         1 B1Q      -0.071400
      9 C9           1.4440     1.0430     0.1170 c6         1 B1Q       0.151500
     10 C10         -2.9350    -1.2770    -0.1860 ca         1 B1Q      -0.060300
     11 C11         -2.9750     1.0560     0.3680 ca         1 B1Q      -0.166000
     12 C12         -4.3370     1.1190     0.1470 ca         1 B1Q       0.109100
     13 C13          4.3180    -0.8790    -1.1610 c5         1 B1Q       0.097000
     14 C14         -4.3160    -1.2190    -0.4080 ca         1 B1Q      -0.172000
     15 C15         -5.0250    -0.0440    -0.2560 ca         1 B1Q       0.116100
     16 C16          5.5450    -0.6920     0.8780 c5         1 B1Q      -0.167400
     17 C17         -0.8870    -2.5510     0.3930 c6         1 B1Q       0.175800
     18 C18          5.7310    -0.6090    -0.6350 c5         1 B1Q      -0.109700
     19 O19          3.5750    -0.0900     2.1810 o          1 B1Q      -0.553000
     20 C20         -2.2150    -2.5860    -0.3350 c6         1 B1Q      -0.026100
     21 N21          2.1040     2.1120    -0.6160 n8         1 B1Q      -0.996200
     22 O22         -5.0960     2.2250     0.2910 os         1 B1Q      -0.322100
     23 O23         -6.3510     0.0950    -0.4470 os         1 B1Q      -0.321100
     24 C25          6.1850     0.7610    -1.0940 c3         1 B1Q       0.188600
     25 C26         -7.0980    -1.0560    -0.7830 c3         1 B1Q       0.145900
     26 C27         -4.4570     3.4260     0.6690 c3         1 B1Q       0.145900
     27 H2           1.8760    -0.3900    -1.3800 h1         1 B1Q       0.078700
     28 H4          -0.6210    -0.0490     1.5510 h1         1 B1Q       0.034700
     29 H7           1.6540    -2.3990    -0.0020 h1         1 B1Q       0.044700
     30 H7A          1.3880    -1.4260     1.4460 h1         1 B1Q       0.044700
     31 H8          -0.1940     0.9890    -1.2870 hc         1 B1Q       0.058200
     32 H8A         -0.4730     1.9830     0.1390 hc         1 B1Q       0.058200
     33 H9           1.5480     1.1460     1.2060 h1         1 B1Q       0.044700
     34 H11         -2.4520     1.9440     0.6970 ha         1 B1Q       0.117000
     35 H13          4.1630    -1.9440    -1.3550 h1         1 B1Q       0.053700
     36 H13A         4.0950    -0.3440    -2.0870 h1         1 B1Q       0.053700
     37 H14         -4.8230    -2.1300    -0.7000 ha         1 B1Q       0.117000
     38 H16          6.1990    -0.0360     1.4530 hc         1 B1Q       0.085200
     39 H16A         5.7170    -1.7090     1.2410 hc         1 B1Q       0.085200
     40 H17         -0.3040    -3.4380     0.1390 h1         1 B1Q       0.034200
     41 H17A        -1.0500    -2.5790     1.4830 h1         1 B1Q       0.034200
     42 H18          6.4290    -1.3590    -1.0050 hc         1 B1Q       0.077700
     43 H20         -2.8310    -3.4010     0.0530 hc         1 B1Q       0.054200
     44 H20A        -2.0410    -2.8030    -1.3940 hc         1 B1Q       0.054200
     45 HN21         1.7080     3.0010    -0.3350 hn         1 B1Q       0.395500
     46 HN2A         3.0780     2.1590    -0.3420 hn         1 B1Q       0.395500
     47 H25          6.2900     0.7880    -2.1800 h1         1 B1Q       0.049200
     48 H25A         5.4760     1.5370    -0.7930 h1         1 B1Q       0.049200
     49 H26         -6.7910    -1.4810    -1.7430 h1         1 B1Q       0.038700
     50 H26A        -7.0180    -1.8320    -0.0170 h1         1 B1Q       0.038700
     51 H26B        -8.1360    -0.7410    -0.8570 h1         1 B1Q       0.038700
     52 H27         -3.9870     3.3480     1.6530 h1         1 B1Q       0.038367
     53 H27A        -3.7010     3.7360    -0.0570 h1         1 B1Q       0.038367
     54 H27B        -5.2320     4.1870     0.7130 h1         1 B1Q       0.038367
     55 F24          7.4220     1.0700    -0.5350 f          1 B1Q      -0.269000
@<TRIPOS>BOND
     1     1     2 1   
     2     1     5 1   
     3     1    13 1   
     4     2     7 1   
     5     2     9 1   
     6     2    27 1   
     7     3     4 1   
     8     3     7 1   
     9     3    17 1   
    10     4     6 1   
    11     4     8 1   
    12     4    28 1   
    13     5    16 1   
    14     5    19 2   
    15     6    10 ar  
    16     6    11 ar  
    17     7    29 1   
    18     7    30 1   
    19     8     9 1   
    20     8    31 1   
    21     8    32 1   
    22     9    21 1   
    23     9    33 1   
    24    10    14 ar  
    25    10    20 1   
    26    11    12 ar  
    27    11    34 1   
    28    12    15 ar  
    29    12    22 1   
    30    13    18 1   
    31    13    35 1   
    32    13    36 1   
    33    14    15 ar  
    34    14    37 1   
    35    15    23 1   
    36    16    18 1   
    37    16    38 1   
    38    16    39 1   
    39    17    20 1   
    40    17    40 1   
    41    17    41 1   
    42    18    24 1   
    43    18    42 1   
    44    20    43 1   
    45    20    44 1   
    46    21    45 1   
    47    21    46 1   
    48    22    26 1   
    49    23    25 1   
    50    24    47 1   
    51    24    48 1   
    52    24    55 1   
    53    25    49 1   
    54    25    50 1   
    55    25    51 1   
    56    26    52 1   
    57    26    53 1   
    58    26    54 1   
@<TRIPOS>SUBSTRUCTURE
     1 B1Q         1 TEMP              0 ****  ****    0 ROOT
