@<TRIPOS>MOLECULE
B1Q
   55    58     1     0     0
SMALL
No Charge or Current Charge


@<TRIPOS>ATOM
      1 N1           3.5650    -0.6780    -0.1820 n          1 B1Q      -0.417800
      2 C2           2.1060    -0.5380    -0.4560 c6         1 B1Q       0.123700
      3 N3          -0.1800    -1.5320    -0.1180 n3         1 B1Q      -0.725600
      4 C4          -0.7550    -0.2120     0.2940 c6         1 B1Q       0.236800
      5 C5           4.1230    -0.6630     1.0960 c          1 B1Q       0.556000
      6 C6          -2.2990    -0.1280     0.1280 ca         1 B1Q      -0.070300
      7 C7           1.2630    -1.6450     0.2330 c6         1 B1Q       0.151800
      8 C8           0.0120     0.9240    -0.4520 c6         1 B1Q      -0.071400
      9 C9           1.5300     0.8790    -0.1500 c6         1 B1Q       0.151500
     10 C10         -3.0600    -1.3020    -0.0840 ca         1 B1Q      -0.060300
     11 C11         -2.9790     1.1060     0.2530 ca         1 B1Q      -0.166000
     12 C12         -4.3840     1.1810     0.1150 ca         1 B1Q       0.109100
     13 C13          4.5490    -0.6900    -1.2860 c5         1 B1Q       0.097000
     14 C14         -4.4580    -1.2320    -0.2260 ca         1 B1Q      -0.172000
     15 C15         -5.1270     0.0060    -0.1350 ca         1 B1Q       0.116100
     16 C16          5.6040    -0.9310     0.8570 c5         1 B1Q      -0.167400
     17 C17         -0.9590    -2.6610     0.4360 c6         1 B1Q       0.175800
     18 C18          5.8690    -0.2960    -0.5420 c5         1 B1Q      -0.109700
     19 O19          3.5560    -0.2960     2.1140 o          1 B1Q      -0.553000
     20 C20         -2.3780    -2.6680    -0.1630 c6         1 B1Q      -0.026100
     21 N21          2.2330     1.9530    -0.9000 n8         1 B1Q      -0.996200
     22 O22         -5.0660     2.3840     0.2220 os         1 B1Q      -0.322100
     23 O23         -6.5030     0.1050    -0.2700 os         1 B1Q      -0.321100
     24 C25          6.1240     1.2300    -0.5060 c3         1 B1Q       0.188600
     25 C26         -7.3400    -1.0370    -0.5230 c3         1 B1Q       0.145900
     26 C27         -4.4000     3.6350     0.4670 c3         1 B1Q       0.145900
     27 H2           1.9700    -0.6970    -1.5360 h1         1 B1Q       0.078700
     28 H4          -0.5660    -0.0730     1.3700 h1         1 B1Q       0.034700
     29 H7           1.6550    -2.6240    -0.0810 h1         1 B1Q       0.044700
     30 H7A          1.3920    -1.5800     1.3230 h1         1 B1Q       0.044700
     31 H8          -0.1630     0.8300    -1.5330 hc         1 B1Q       0.058200
     32 H8A         -0.3640     1.9100    -0.1580 hc         1 B1Q       0.058200
     33 H9           1.6730     1.0860     0.9210 h1         1 B1Q       0.044700
     34 H11         -2.4130     2.0030     0.4720 ha         1 B1Q       0.117000
     35 H13          4.6190    -1.6960    -1.7210 h1         1 B1Q       0.053700
     36 H13A         4.2910     0.0150    -2.0880 h1         1 B1Q       0.053700
     37 H14         -5.0070    -2.1520    -0.4020 ha         1 B1Q       0.117000
     38 H16          6.2240    -0.5600     1.6800 hc         1 B1Q       0.085200
     39 H16A         5.7310    -2.0160     0.7650 hc         1 B1Q       0.085200
     40 H17         -0.4750    -3.6210     0.2040 h1         1 B1Q       0.034200
     41 H17A        -1.0230    -2.5810     1.5310 h1         1 B1Q       0.034200
     42 H18          6.7420    -0.7440    -1.0310 hc         1 B1Q       0.077700
     43 H20         -2.9830    -3.4260     0.3530 hc         1 B1Q       0.054200
     44 H20A        -2.3230    -2.9780    -1.2150 hc         1 B1Q       0.054200
     45 HN21         1.9560     2.8640    -0.5150 hn         1 B1Q       0.395500
     46 HN2A         3.2320     1.8900    -0.6840 hn         1 B1Q       0.395500
     47 H25          6.2080     1.6170    -1.5300 h1         1 B1Q       0.049200
     48 H25A         5.2940     1.7430    -0.0050 h1         1 B1Q       0.049200
     49 H26         -7.0610    -1.5230    -1.4660 h1         1 B1Q       0.038700
     50 H26A        -7.2560    -1.7690     0.2910 h1         1 B1Q       0.038700
     51 H26B        -8.3900    -0.7300    -0.5960 h1         1 B1Q       0.038700
     52 H27         -3.8640     3.6120     1.4240 h1         1 B1Q       0.038367
     53 H27A        -3.6830     3.8590    -0.3340 h1         1 B1Q       0.038367
     54 H27B        -5.1310     4.4520     0.5060 h1         1 B1Q       0.038367
     55 F24          7.2710     1.5210     0.1560 f          1 B1Q      -0.269000
@<TRIPOS>BOND
     1     1     2 1   
     2     1     5 1   
     3     1    13 1   
     4     2     7 1   
     5     2     9 1   
     6     2    27 1   
     7     3     4 1   
     8     3     7 1   
     9     3    17 1   
    10     4     6 1   
    11     4     8 1   
    12     4    28 1   
    13     5    16 1   
    14     5    19 2   
    15     6    10 ar  
    16     6    11 ar  
    17     7    29 1   
    18     7    30 1   
    19     8     9 1   
    20     8    31 1   
    21     8    32 1   
    22     9    21 1   
    23     9    33 1   
    24    10    14 ar  
    25    10    20 1   
    26    11    12 ar  
    27    11    34 1   
    28    12    15 ar  
    29    12    22 1   
    30    13    18 1   
    31    13    35 1   
    32    13    36 1   
    33    14    15 ar  
    34    14    37 1   
    35    15    23 1   
    36    16    18 1   
    37    16    38 1   
    38    16    39 1   
    39    17    20 1   
    40    17    40 1   
    41    17    41 1   
    42    18    24 1   
    43    18    42 1   
    44    20    43 1   
    45    20    44 1   
    46    21    45 1   
    47    21    46 1   
    48    22    26 1   
    49    23    25 1   
    50    24    47 1   
    51    24    48 1   
    52    24    55 1   
    53    25    49 1   
    54    25    50 1   
    55    25    51 1   
    56    26    52 1   
    57    26    53 1   
    58    26    54 1   
@<TRIPOS>SUBSTRUCTURE
     1 B1Q         1 TEMP              0 ****  ****    0 ROOT
