@<TRIPOS>MOLECULE
B1S
   63    64     1     0     0
SMALL
No Charge or Current Charge


@<TRIPOS>ATOM
      1 C7           5.2210     0.4610     1.0630 c3         1 B1S       0.231900
      2 O8           3.9320     0.4780     0.4300 os         1 B1S      -0.457100
      3 C9           2.8380     0.5190     1.2360 c          1 B1S       0.646100
      4 O10          2.8470     0.5340     2.4560 o          1 B1S      -0.562000
      5 C1           6.2890     0.4190    -0.0220 ca         1 B1S      -0.091300
      6 C2           6.8090     1.6160    -0.5550 ca         1 B1S      -0.084000
      7 C3           7.7960     1.5770    -1.5550 ca         1 B1S      -0.119500
      8 C4           8.2690     0.3420    -2.0300 ca         1 B1S      -0.107000
      9 C5           7.7530    -0.8550    -1.5040 ca         1 B1S      -0.119500
     10 C6           6.7660    -0.8170    -0.5040 ca         1 B1S      -0.084000
     11 N11          1.7170     0.5220     0.4580 ns         1 B1S      -0.473900
     12 C12          0.3280     0.5620     0.9620 c3         1 B1S       0.051700
     13 C17         -0.6310     0.0040    -0.1340 c          1 B1S       0.612100
     14 O18         -0.3190    -0.0360    -1.3190 o          1 B1S      -0.614100
     15 C13         -0.0270     2.0180     1.3930 c3         1 B1S      -0.093400
     16 C14         -1.3590     2.2170     2.1720 c3         1 B1S      -0.060700
     17 C15         -1.3960     1.4350     3.5070 c3         1 B1S      -0.089100
     18 C16         -1.6370     3.7180     2.4110 c3         1 B1S      -0.089100
     19 N19         -1.8480    -0.4620     0.3270 ns         1 B1S      -0.494900
     20 C20         -2.9060    -1.0820    -0.4860 c3         1 B1S       0.150700
     21 C21         -2.4620    -2.4530    -1.0910 c3         1 B1S      -0.101700
     22 O22         -3.4920    -2.9970    -1.9830 oh         1 B1S      -0.655000
     23 C24         -3.4660    -0.0920    -1.5520 c3         1 B1S      -0.058400
     24 C25         -3.8160     1.3320    -1.0320 c5         1 B1S      -0.143700
     25 C26         -4.8670     1.3850     0.1120 c5         1 B1S      -0.091400
     26 C27         -5.3230     2.8660     0.0310 c5         1 B1S       0.098000
     27 N28         -5.2950     3.0750    -1.4150 ns         1 B1S      -0.523900
     28 C29         -4.4410     2.2470    -2.0930 c          1 B1S       0.560000
     29 O30         -4.4220     2.1590    -3.3100 o          1 B1S      -0.559000
     30 H1           5.3620     1.3570     1.6820 h1         1 B1S       0.052200
     31 H2           5.3240    -0.4180     1.7130 h1         1 B1S       0.052200
     32 H3           6.4460     2.5760    -0.1940 ha         1 B1S       0.118500
     33 H4           8.1930     2.5040    -1.9620 ha         1 B1S       0.109000
     34 H5           9.0320     0.3120    -2.8040 ha         1 B1S       0.104000
     35 H6           8.1170    -1.8110    -1.8720 ha         1 B1S       0.109000
     36 H7           6.3700    -1.7480    -0.1040 ha         1 B1S       0.118500
     37 H8           1.8710     0.4800    -0.5430 hn         1 B1S       0.350500
     38 H9           0.2640    -0.1110     1.8260 h1         1 B1S       0.102700
     39 H10          0.7860     2.4080     2.0180 hc         1 B1S       0.046700
     40 H11         -0.0440     2.6460     0.4940 hc         1 B1S       0.046700
     41 H12         -2.1830     1.8510     1.5530 hc         1 B1S       0.052700
     42 H13         -1.3340     0.3540     3.3410 hc         1 B1S       0.031867
     43 H14         -0.5640     1.7330     4.1560 hc         1 B1S       0.031867
     44 H15         -2.3330     1.6310     4.0420 hc         1 B1S       0.031867
     45 H16         -1.6710     4.2620     1.4590 hc         1 B1S       0.031867
     46 H17         -2.6020     3.8590     2.9120 hc         1 B1S       0.031867
     47 H18         -0.8560     4.1660     3.0360 hc         1 B1S       0.031867
     48 H19         -1.9990    -0.4060     1.3260 hn         1 B1S       0.328500
     49 H20         -3.7370    -1.2910     0.2030 h1         1 B1S       0.068700
     50 H21         -1.5480    -2.3140    -1.6760 h2         1 B1S       0.065700
     51 H23         -3.3120    -3.9640    -2.0690 ho         1 B1S       0.457000
     52 H24         -2.7430    -0.0090    -2.3720 hc         1 B1S       0.071200
     53 H25         -4.3660    -0.5330    -1.9960 hc         1 B1S       0.071200
     54 H26         -2.9070     1.8370    -0.6890 hc         1 B1S       0.078700
     55 H27         -5.7080     0.7090    -0.0890 hc         1 B1S       0.060700
     56 H28         -4.4610     1.1200     1.0940 hc         1 B1S       0.060700
     57 H29         -6.3220     3.0150     0.4640 h1         1 B1S       0.033700
     58 H30         -4.6170     3.5330     0.5440 h1         1 B1S       0.033700
     59 H31         -5.8870     3.7090    -1.9390 hn         1 B1S       0.312500
     60 S1          -1.9700    -3.6900     0.2230 s6         1 B1S       1.278600
     61 O1          -3.0610    -3.6400     1.2090 o          1 B1S      -0.683867
     62 O3          -1.8970    -4.9560    -0.5250 o          1 B1S      -0.683867
     63 O2          -0.6730    -3.2140     0.7280 o          1 B1S      -0.683867
@<TRIPOS>BOND
     1     1     2 1   
     2     1     5 1   
     3     1    30 1   
     4     1    31 1   
     5     2     3 1   
     6     3     4 2   
     7     3    11 1   
     8     5     6 ar  
     9     5    10 ar  
    10     6     7 ar  
    11     6    32 1   
    12     7     8 ar  
    13     7    33 1   
    14     8     9 ar  
    15     8    34 1   
    16     9    10 ar  
    17     9    35 1   
    18    10    36 1   
    19    11    12 1   
    20    11    37 1   
    21    12    13 1   
    22    12    15 1   
    23    12    38 1   
    24    13    14 2   
    25    13    19 1   
    26    15    16 1   
    27    15    39 1   
    28    15    40 1   
    29    16    17 1   
    30    16    18 1   
    31    16    41 1   
    32    17    42 1   
    33    17    43 1   
    34    17    44 1   
    35    18    45 1   
    36    18    46 1   
    37    18    47 1   
    38    19    20 1   
    39    19    48 1   
    40    20    21 1   
    41    20    23 1   
    42    20    49 1   
    43    21    22 1   
    44    21    50 1   
    45    21    60 1   
    46    22    51 1   
    47    23    24 1   
    48    23    52 1   
    49    23    53 1   
    50    24    25 1   
    51    24    28 1   
    52    24    54 1   
    53    25    26 1   
    54    25    55 1   
    55    25    56 1   
    56    26    27 1   
    57    26    57 1   
    58    26    58 1   
    59    27    28 1   
    60    27    59 1   
    61    28    29 2   
    62    60    61 1   
    63    60    62 1   
    64    60    63 1   
@<TRIPOS>SUBSTRUCTURE
     1 B1S         1 TEMP              0 ****  ****    0 ROOT
