@<TRIPOS>MOLECULE
B1S
   63    64     1     0     0
SMALL
abcg2


@<TRIPOS>ATOM
      1 C7           5.0610     0.2530     1.0610 c3         1 B1S       0.231900
      2 O8           3.8210     0.4530     0.3750 os         1 B1S      -0.457100
      3 C9           2.7090     0.4470     1.1210 c          1 B1S       0.646100
      4 O10          2.7040     0.2980     2.3270 o          1 B1S      -0.562000
      5 C1           6.1400     0.2510     0.0210 ca         1 B1S      -0.091300
      6 C2           6.8790     1.4010    -0.2380 ca         1 B1S      -0.084000
      7 C3           7.8630     1.4020    -1.2180 ca         1 B1S      -0.119500
      8 C4           8.1120     0.2510    -1.9520 ca         1 B1S      -0.107000
      9 C5           7.3780    -0.9020    -1.7010 ca         1 B1S      -0.119500
     10 C6           6.3980    -0.9000    -0.7190 ca         1 B1S      -0.084000
     11 N11          1.6200     0.6220     0.3580 ns         1 B1S      -0.473900
     12 C12          0.2920     0.6790     0.9140 c3         1 B1S       0.051700
     13 C17         -0.6740     0.1830    -0.1580 c          1 B1S       0.612100
     14 O18         -0.4200     0.3140    -1.3450 o          1 B1S      -0.614100
     15 C13         -0.0660     2.1100     1.3580 c3         1 B1S      -0.093400
     16 C14         -1.3210     2.2710     2.2180 c3         1 B1S      -0.060700
     17 C15         -1.1870     1.5480     3.5560 c3         1 B1S      -0.089100
     18 C16         -1.6040     3.7530     2.4380 c3         1 B1S      -0.089100
     19 N19         -1.8200    -0.3300     0.3130 ns         1 B1S      -0.494900
     20 C20         -2.8330    -0.9900    -0.4880 c3         1 B1S       0.150700
     21 C21         -2.3240    -2.3130    -1.0640 c3         1 B1S      -0.101700
     22 O22         -3.4340    -3.0210    -1.5170 oh         1 B1S      -0.655000
     23 C24         -3.4390    -0.1000    -1.5770 c3         1 B1S      -0.058400
     24 C25         -3.8460     1.2680    -1.0570 c5         1 B1S      -0.143700
     25 C26         -4.8760     1.2710     0.0720 c5         1 B1S      -0.091400
     26 C27         -5.6080     2.6030    -0.1060 c5         1 B1S       0.098000
     27 N28         -5.4860     2.8280    -1.5310 ns         1 B1S      -0.523900
     28 C29         -4.5010     2.1340    -2.1230 c          1 B1S       0.560000
     29 O30         -4.1790     2.2000    -3.2990 o          1 B1S      -0.559000
     30 H1           5.2240     1.0530     1.7870 h1         1 B1S       0.052200
     31 H2           5.0440    -0.6960     1.6010 h1         1 B1S       0.052200
     32 H3           6.6880     2.3010     0.3340 ha         1 B1S       0.118500
     33 H4           8.4340     2.3020    -1.4070 ha         1 B1S       0.109000
     34 H5           8.8790     0.2490    -2.7160 ha         1 B1S       0.104000
     35 H6           7.5720    -1.8040    -2.2680 ha         1 B1S       0.109000
     36 H7           5.8320    -1.8040    -0.5210 ha         1 B1S       0.118500
     37 H8           1.7190     0.7570    -0.6370 hn         1 B1S       0.350500
     38 H9           0.2570     0.0040     1.7700 h1         1 B1S       0.102700
     39 H10          0.7860     2.4900     1.9280 hc         1 B1S       0.046700
     40 H11         -0.1400     2.7390     0.4650 hc         1 B1S       0.046700
     41 H12         -2.1820     1.8500     1.6880 hc         1 B1S       0.052700
     42 H13         -1.0380     0.4720     3.4450 hc         1 B1S       0.031867
     43 H14         -0.3360     1.9360     4.1210 hc         1 B1S       0.031867
     44 H15         -2.0810     1.6850     4.1650 hc         1 B1S       0.031867
     45 H16         -1.7620     4.2720     1.4920 hc         1 B1S       0.031867
     46 H17         -2.4960     3.8960     3.0510 hc         1 B1S       0.031867
     47 H18         -0.7700     4.2390     2.9500 hc         1 B1S       0.031867
     48 H19         -1.8640    -0.5310     1.2980 hn         1 B1S       0.328500
     49 H20         -3.6250    -1.2400     0.2220 h1         1 B1S       0.068700
     50 H21         -1.5890    -2.1300    -1.8590 h2         1 B1S       0.065700
     51 H23         -3.1320    -3.8460    -1.9130 ho         1 B1S       0.457000
     52 H24         -2.7420     0.0140    -2.4060 hc         1 B1S       0.071200
     53 H25         -4.3220    -0.6120    -1.9670 hc         1 B1S       0.071200
     54 H26         -2.9510     1.8190    -0.7400 hc         1 B1S       0.078700
     55 H27         -5.5770     0.4440    -0.0640 hc         1 B1S       0.060700
     56 H28         -4.4370     1.1750     1.0640 hc         1 B1S       0.060700
     57 H29         -6.6530     2.5510     0.1960 h1         1 B1S       0.033700
     58 H30         -5.1310     3.4060     0.4640 h1         1 B1S       0.033700
     59 H31         -5.9840     3.5630    -2.0100 hn         1 B1S       0.312500
     60 S1          -1.4300    -3.3040     0.2020 s6         1 B1S       1.278600
     61 O1          -2.1900    -3.1580     1.4610 o          1 B1S      -0.683867
     62 O3          -1.4740    -4.6780    -0.3440 o          1 B1S      -0.683867
     63 O2          -0.0640    -2.7520     0.2690 o          1 B1S      -0.683867
@<TRIPOS>BOND
     1     1     2 1   
     2     1     5 1   
     3     1    30 1   
     4     1    31 1   
     5     2     3 1   
     6     3     4 2   
     7     3    11 1   
     8     5     6 ar  
     9     5    10 ar  
    10     6     7 ar  
    11     6    32 1   
    12     7     8 ar  
    13     7    33 1   
    14     8     9 ar  
    15     8    34 1   
    16     9    10 ar  
    17     9    35 1   
    18    10    36 1   
    19    11    12 1   
    20    11    37 1   
    21    12    13 1   
    22    12    15 1   
    23    12    38 1   
    24    13    14 2   
    25    13    19 1   
    26    15    16 1   
    27    15    39 1   
    28    15    40 1   
    29    16    17 1   
    30    16    18 1   
    31    16    41 1   
    32    17    42 1   
    33    17    43 1   
    34    17    44 1   
    35    18    45 1   
    36    18    46 1   
    37    18    47 1   
    38    19    20 1   
    39    19    48 1   
    40    20    21 1   
    41    20    23 1   
    42    20    49 1   
    43    21    22 1   
    44    21    50 1   
    45    21    60 1   
    46    22    51 1   
    47    23    24 1   
    48    23    52 1   
    49    23    53 1   
    50    24    25 1   
    51    24    28 1   
    52    24    54 1   
    53    25    26 1   
    54    25    55 1   
    55    25    56 1   
    56    26    27 1   
    57    26    57 1   
    58    26    58 1   
    59    27    28 1   
    60    27    59 1   
    61    28    29 2   
    62    60    61 1   
    63    60    62 1   
    64    60    63 1   
@<TRIPOS>SUBSTRUCTURE
     1 B1S         1 TEMP              0 ****  ****    0 ROOT
