@<TRIPOS>MOLECULE
B1T
   25    26     1     0     0
SMALL
No Charge or Current Charge


@<TRIPOS>ATOM
      1 OAA          0.5690     0.9550     2.2340 oh         1 B1T      -0.510600
      2 CAP          1.5140     0.7280     1.2730 ca         1 B1T       0.184600
      3 CAN          2.6770    -0.0130     1.5830 ca         1 B1T       0.047500
      4 ClAE         2.9350    -0.6640     3.2040 cl         1 B1T      -0.175500
      5 CAG          3.6500    -0.2470     0.5950 ca         1 B1T      -0.042000
      6 CAL          3.4680     0.2590    -0.7010 ca         1 B1T       0.080500
      7 ClAC         4.6860    -0.0330    -1.9360 cl         1 B1T      -0.183500
      8 CAI          2.3170     1.0010    -1.0140 ca         1 B1T      -0.034000
      9 CAR          1.3360     1.2370    -0.0310 ca         1 B1T      -0.205000
     10 SAK         -0.1080     2.1960    -0.4740 ss         1 B1T       0.109000
     11 CAS         -1.3020     0.8650    -0.5300 ca         1 B1T      -0.205000
     12 CAJ         -1.3080    -0.0120    -1.6320 ca         1 B1T      -0.034000
     13 CAM         -2.2460    -1.0560    -1.6970 ca         1 B1T       0.080500
     14 ClAD        -2.2490    -2.1470    -3.0770 cl         1 B1T      -0.183500
     15 CAH         -3.1830    -1.2290    -0.6650 ca         1 B1T      -0.042000
     16 CAO         -3.1780    -0.3590     0.4390 ca         1 B1T       0.047500
     17 ClAF        -4.3550    -0.6000     1.7310 cl         1 B1T      -0.175500
     18 CAQ         -2.2350     0.6900     0.5090 ca         1 B1T       0.184600
     19 OAB         -2.2010     1.5280     1.5890 oh         1 B1T      -0.510600
     20 HOAA        -0.2410     1.3030     1.7980 ho         1 B1T       0.490000
     21 HAG          4.5420    -0.8190     0.8340 ha         1 B1T       0.148000
     22 HAI          2.1890     1.3910    -2.0220 ha         1 B1T       0.146000
     23 HAJ         -0.5890     0.1160    -2.4390 ha         1 B1T       0.146000
     24 HAH         -3.9070    -2.0370    -0.7180 ha         1 B1T       0.148000
     25 HOAB        -2.9870     1.3360     2.1470 ho         1 B1T       0.490000
@<TRIPOS>BOND
     1     1     2 1   
     2     1    20 1   
     3     2     3 ar  
     4     2     9 ar  
     5     3     4 1   
     6     3     5 ar  
     7     5     6 ar  
     8     5    21 1   
     9     6     7 1   
    10     6     8 ar  
    11     8     9 ar  
    12     8    22 1   
    13     9    10 1   
    14    10    11 1   
    15    11    12 ar  
    16    11    18 ar  
    17    12    13 ar  
    18    12    23 1   
    19    13    14 1   
    20    13    15 ar  
    21    15    16 ar  
    22    15    24 1   
    23    16    17 1   
    24    16    18 ar  
    25    18    19 1   
    26    19    25 1   
@<TRIPOS>SUBSTRUCTURE
     1 B1T         1 TEMP              0 ****  ****    0 ROOT
