@<TRIPOS>MOLECULE
B1T
   25    26     1     0     0
SMALL
abcg2


@<TRIPOS>ATOM
      1 OAA          1.2540    -0.0430     2.4740 oh         1 B1T      -0.510600
      2 CAP          1.8860     0.2130     1.3330 ca         1 B1T       0.184600
      3 CAN          3.1190    -0.4000     1.1010 ca         1 B1T       0.047500
      4 CLAE         3.7610    -1.4510     2.3060 cl         1 B1T      -0.175500
      5 CAG          3.8270    -0.1770    -0.0650 ca         1 B1T      -0.042000
      6 CAL          3.3040     0.6750    -1.0260 ca         1 B1T       0.080500
      7 CLAC         4.1950     0.9600    -2.4810 cl         1 B1T      -0.183500
      8 CAI          2.0850     1.2950    -0.8340 ca         1 B1T      -0.034000
      9 CAR          1.3770     1.0570     0.3390 ca         1 B1T      -0.205000
     10 SAK         -0.1550     1.8810     0.6310 ss         1 B1T       0.109000
     11 CAS         -1.3330     0.6750     0.0750 ca         1 B1T      -0.205000
     12 CAJ         -1.0000    -0.5330    -0.5140 ca         1 B1T      -0.034000
     13 CAM         -2.0100    -1.3960    -0.9130 ca         1 B1T       0.080500
     14 CLAD        -1.5880    -2.9050    -1.6480 cl         1 B1T      -0.183500
     15 CAH         -3.3430    -1.0760    -0.7380 ca         1 B1T      -0.042000
     16 CAO         -3.6570     0.1380    -0.1490 ca         1 B1T       0.047500
     17 CLAF        -5.3130     0.5740     0.0900 cl         1 B1T      -0.175500
     18 CAQ         -2.6720     1.0290     0.2650 ca         1 B1T       0.184600
     19 OAB         -2.9110     2.2110     0.8400 oh         1 B1T      -0.510600
     20 HOAA         0.4670     0.5190     2.5490 ho         1 B1T       0.490000
     21 HAG          4.7810    -0.6630    -0.2170 ha         1 B1T       0.148000
     22 HAI          1.6730     1.9570    -1.5830 ha         1 B1T       0.146000
     23 HAJ          0.0340    -0.8060    -0.6710 ha         1 B1T       0.146000
     24 HAH         -4.1280    -1.7510    -1.0490 ha         1 B1T       0.148000
     25 HOAB        -3.8570     2.4060     0.8860 ho         1 B1T       0.490000
@<TRIPOS>BOND
     1     1     2 1   
     2     1    20 1   
     3     2     3 ar  
     4     2     9 ar  
     5     3     4 1   
     6     3     5 ar  
     7     5     6 ar  
     8     5    21 1   
     9     6     7 1   
    10     6     8 ar  
    11     8     9 ar  
    12     8    22 1   
    13     9    10 1   
    14    10    11 1   
    15    11    12 ar  
    16    11    18 ar  
    17    12    13 ar  
    18    12    23 1   
    19    13    14 1   
    20    13    15 ar  
    21    15    16 ar  
    22    15    24 1   
    23    16    17 1   
    24    16    18 ar  
    25    18    19 1   
    26    19    25 1   
@<TRIPOS>SUBSTRUCTURE
     1 B1T         1 TEMP              0 ****  ****    0 ROOT
