@<TRIPOS>MOLECULE
B1U
   51    54     1     0     0
SMALL
bcc


@<TRIPOS>ATOM
      1 O8           1.0100     0.8050    -1.6810 o          1 B1U      -0.205500
      2 N7           1.3350     1.9590    -1.8550 no         1 B1U       0.319200
      3 O9           0.5940     2.8280    -2.2350 o          1 B1U      -0.205500
      4 C13          2.7230     2.2950    -1.5960 ca         1 B1U      -0.138200
      5 C14          3.3030     3.3230    -2.3160 ca         1 B1U      -0.069000
      6 C15          4.6470     3.6020    -2.1200 ca         1 B1U      -0.117000
      7 C16          5.3850     2.8600    -1.2120 ca         1 B1U      -0.087000
      8 C17          4.7850     1.8370    -0.4880 ca         1 B1U      -0.106000
      9 C12          3.4420     1.5430    -0.6730 ca         1 B1U      -0.100600
     10 C11          2.8020     0.5380     0.2360 c          1 B1U       0.718700
     11 O7           2.0360     0.8450     1.1110 o          1 B1U      -0.489100
     12 N6           3.2370    -0.7460     0.0220 ns         1 B1U      -0.677300
     13 SAT          2.8620    -2.0300     1.0220 s6         1 B1U       1.583100
     14 O5           3.5070    -3.1630     0.4120 o          1 B1U      -0.604800
     15 O6           3.1040    -1.6730     2.3910 o          1 B1U      -0.604800
     16 O4           1.2910    -2.1470     0.9100 os         1 B1U      -0.517500
     17 C10          0.6890    -2.5430    -0.3400 c3         1 B1U       0.161400
     18 C9          -0.7350    -2.9450    -0.0310 c5         1 B1U       0.149100
     19 O1          -1.4320    -1.8670     0.5910 os         1 B1U      -0.378600
     20 C8          -1.5060    -3.2950    -1.3070 c5         1 B1U       0.083100
     21 O2          -2.3750    -4.3560    -1.0170 oh         1 B1U      -0.578800
     22 C7          -2.2800    -1.9960    -1.5640 c5         1 B1U       0.057100
     23 O3          -3.4560    -2.1480    -2.2960 oh         1 B1U      -0.567800
     24 C6          -2.5990    -1.5750    -0.1340 c5         1 B1U       0.263800
     25 N5          -2.9330    -0.1920     0.0330 na         1 B1U      -0.255000
     26 C5          -2.2090     0.9050    -0.3600 cc         1 B1U       0.420700
     27 N4          -2.7570     2.0320    -0.0230 nd         1 B1U      -0.550100
     28 C3          -3.9070     1.6710     0.6330 ca         1 B1U      -0.229200
     29 C2          -4.0340     0.2940     0.6850 ca         1 B1U       0.470800
     30 N2          -5.0250    -0.3900     1.2490 nb         1 B1U      -0.743000
     31 C1          -5.9280     0.4120     1.7850 ca         1 B1U       0.707900
     32 N1          -5.9410     1.7420     1.8120 nb         1 B1U      -0.830000
     33 C4          -4.9360     2.4150     1.2400 ca         1 B1U       0.778200
     34 N3          -4.9500     3.7480     1.2580 nv         1 B1U      -0.955500
     35 H1           2.7280     3.8850    -3.0390 ha         1 B1U       0.172000
     36 H2           5.1150     4.3950    -2.6850 ha         1 B1U       0.153000
     37 H3           6.4330     3.0770    -1.0580 ha         1 B1U       0.151000
     38 H4           5.3650     1.2780     0.2340 ha         1 B1U       0.157000
     39 H5           3.8250    -0.9620    -0.7760 hn         1 B1U       0.349500
     40 H6           0.7410    -1.7110    -1.0440 h1         1 B1U       0.062200
     41 H7           1.2150    -3.4010    -0.7630 h1         1 B1U       0.062200
     42 H8          -0.7200    -3.8070     0.6440 h1         1 B1U       0.102700
     43 H9          -0.8330    -3.5380    -2.1400 h1         1 B1U       0.049700
     44 H10         -3.0360    -4.4010    -1.7180 ho         1 B1U       0.425000
     45 H11         -1.6020    -1.2670    -2.0270 h1         1 B1U       0.058700
     46 H12         -3.2480    -2.1100    -3.2350 ho         1 B1U       0.415000
     47 H13         -3.4600    -2.1430     0.2370 h2         1 B1U       0.119700
     48 H14         -1.2770     0.8100    -0.8960 h5         1 B1U       0.076800
     49 H15         -6.7710    -0.0720     2.2670 h5         1 B1U       0.045100
     50 H16         -4.1810     4.2820     0.8930 hn         1 B1U       0.449800
     51 H17         -5.6820     4.2390     1.7430 hn         1 B1U       0.449800
@<TRIPOS>BOND
     1     1     2 1   
     2     2     3 1   
     3     2     4 1   
     4     4     5 ar  
     5     4     9 ar  
     6     5     6 ar  
     7     5    35 1   
     8     6     7 ar  
     9     6    36 1   
    10     7     8 ar  
    11     7    37 1   
    12     8     9 ar  
    13     8    38 1   
    14     9    10 1   
    15    10    11 2   
    16    10    12 1   
    17    12    13 1   
    18    12    39 1   
    19    13    14 2   
    20    13    15 2   
    21    13    16 1   
    22    16    17 1   
    23    17    18 1   
    24    17    40 1   
    25    17    41 1   
    26    18    19 1   
    27    18    20 1   
    28    18    42 1   
    29    19    24 1   
    30    20    21 1   
    31    20    22 1   
    32    20    43 1   
    33    21    44 1   
    34    22    23 1   
    35    22    24 1   
    36    22    45 1   
    37    23    46 1   
    38    24    25 1   
    39    24    47 1   
    40    25    26 1   
    41    25    29 1   
    42    26    27 2   
    43    26    48 1   
    44    27    28 1   
    45    28    29 ar  
    46    28    33 ar  
    47    29    30 ar  
    48    30    31 ar  
    49    31    32 ar  
    50    31    49 1   
    51    32    33 ar  
    52    33    34 1   
    53    34    50 1   
    54    34    51 1   
@<TRIPOS>SUBSTRUCTURE
     1 B1U         1 TEMP              0 ****  ****    0 ROOT
