@<TRIPOS>MOLECULE
B1U
   51    54     1     0     0
SMALL
No Charge or Current Charge


@<TRIPOS>ATOM
      1 O8           0.1880     1.2190    -1.1630 o          1 B1U      -0.395500
      2 N7           0.7610     2.2980    -0.9640 no         1 B1U       0.699200
      3 O9           0.1750     3.3860    -0.9070 o          1 B1U      -0.395500
      4 C13          2.2430     2.3180    -1.1310 ca         1 B1U      -0.138200
      5 C14          2.8060     3.2290    -2.0520 ca         1 B1U      -0.051000
      6 C15          4.1860     3.2240    -2.3050 ca         1 B1U      -0.099000
      7 C16          5.0160     2.3080    -1.6430 ca         1 B1U      -0.069000
      8 C17          4.4710     1.4030    -0.7180 ca         1 B1U      -0.088000
      9 C12          3.0830     1.3980    -0.4380 ca         1 B1U      -0.100600
     10 C11          2.5330     0.4550     0.6130 c          1 B1U       0.651700
     11 O7           1.6680     0.7950     1.4040 o          1 B1U      -0.489100
     12 N6           3.1190    -0.7670     0.6480 ns         1 B1U      -0.610300
     13 SAT          2.7680    -2.0290     1.6640 s6         1 B1U       1.441500
     14 O5           3.5280    -3.1890     1.1940 o          1 B1U      -0.534000
     15 O6           2.8770    -1.5630     3.0510 o          1 B1U      -0.534000
     16 O4           1.1790    -2.2430     1.3040 os         1 B1U      -0.540700
     17 C10          0.8460    -2.6120    -0.0490 c3         1 B1U       0.184600
     18 C9          -0.6790    -2.8920    -0.1270 c5         1 B1U       0.172300
     19 O1          -1.4260    -1.7180     0.3080 os         1 B1U      -0.425000
     20 C8          -1.1940    -3.2210    -1.5780 c5         1 B1U       0.106300
     21 O2          -2.2130    -4.2320    -1.5850 oh         1 B1U      -0.701000
     22 C7          -1.8050    -1.8530    -1.9940 c5         1 B1U       0.080300
     23 O3          -2.7160    -1.9870    -3.1040 oh         1 B1U      -0.690000
     24 C6          -2.4830    -1.4770    -0.6390 c5         1 B1U       0.316300
     25 N5          -2.9950    -0.1160    -0.4710 na         1 B1U      -0.284300
     26 C5          -2.9150     0.9170    -1.4120 cc         1 B1U       0.420700
     27 N4          -3.5300     2.0320    -0.9730 nd         1 B1U      -0.550100
     28 C3          -4.0020     1.6610     0.2900 ca         1 B1U      -0.098600
     29 C2          -3.6830     0.3640     0.6060 ca         1 B1U       0.142500
     30 N2          -4.0440    -0.2010     1.7750 nb         1 B1U      -0.217000
     31 C1          -4.7340     0.5980     2.6240 ca         1 B1U       0.181900
     32 N1          -5.0940     1.8870     2.4130 nb         1 B1U      -0.304000
     33 C4          -4.7260     2.4160     1.2360 ca         1 B1U       0.449900
     34 N3          -5.0880     3.7090     1.0210 nv         1 B1U      -1.065900
     35 H1           2.1700     3.9310    -2.5910 ha         1 B1U       0.154000
     36 H2           4.6120     3.9260    -3.0200 ha         1 B1U       0.135000
     37 H3           6.0870     2.3070    -1.8390 ha         1 B1U       0.133000
     38 H4           5.1460     0.7280    -0.1940 ha         1 B1U       0.139000
     39 H5           3.8050    -1.0230    -0.0390 hn         1 B1U       0.349500
     40 H6           1.0950    -1.8090    -0.7560 h1         1 B1U       0.062200
     41 H7           1.3800    -3.5210    -0.3570 h1         1 B1U       0.062200
     42 H8          -0.9030    -3.7240     0.5540 h1         1 B1U       0.102700
     43 H9          -0.3700    -3.5100    -2.2450 h1         1 B1U       0.049700
     44 H10         -2.8330    -3.9560    -2.3060 ho         1 B1U       0.524000
     45 H11         -1.0100    -1.1310    -2.2310 h1         1 B1U       0.058700
     46 H12         -2.1980    -1.8690    -3.9370 ho         1 B1U       0.514000
     47 H13         -3.3260    -2.1500    -0.4360 h2         1 B1U       0.119700
     48 H14         -2.4210     0.8010    -2.3690 h5         1 B1U       0.076800
     49 H15         -5.0300     0.1570     3.5750 h5         1 B1U       0.045100
     50 H16         -4.6320     4.1860     0.2460 hn         1 B1U       0.505000
     51 H17         -5.3320     4.2800     1.8260 hn         1 B1U       0.505000
@<TRIPOS>BOND
     1     1     2 1   
     2     2     3 1   
     3     2     4 1   
     4     4     5 ar  
     5     4     9 ar  
     6     5     6 ar  
     7     5    35 1   
     8     6     7 ar  
     9     6    36 1   
    10     7     8 ar  
    11     7    37 1   
    12     8     9 ar  
    13     8    38 1   
    14     9    10 1   
    15    10    11 2   
    16    10    12 1   
    17    12    13 1   
    18    12    39 1   
    19    13    14 2   
    20    13    15 2   
    21    13    16 1   
    22    16    17 1   
    23    17    18 1   
    24    17    40 1   
    25    17    41 1   
    26    18    19 1   
    27    18    20 1   
    28    18    42 1   
    29    19    24 1   
    30    20    21 1   
    31    20    22 1   
    32    20    43 1   
    33    21    44 1   
    34    22    23 1   
    35    22    24 1   
    36    22    45 1   
    37    23    46 1   
    38    24    25 1   
    39    24    47 1   
    40    25    26 1   
    41    25    29 1   
    42    26    27 2   
    43    26    48 1   
    44    27    28 1   
    45    28    29 ar  
    46    28    33 ar  
    47    29    30 ar  
    48    30    31 ar  
    49    31    32 ar  
    50    31    49 1   
    51    32    33 ar  
    52    33    34 1   
    53    34    50 1   
    54    34    51 1   
@<TRIPOS>SUBSTRUCTURE
     1 B1U         1 TEMP              0 ****  ****    0 ROOT
