@<TRIPOS>MOLECULE
B1V
   35    36     1     0     0
SMALL
No Charge or Current Charge


@<TRIPOS>ATOM
      1 F27         -0.3810     1.4430     5.4610 f          1 B1V      -0.100667
      2 C24         -0.5140     0.1830     4.9890 c3         1 B1V       0.269700
      3 F25         -1.8360    -0.1100     5.0200 f          1 B1V      -0.100667
      4 F26          0.0860    -0.6370     5.8810 f          1 B1V      -0.100667
      5 C9           0.0970     0.0440     3.5890 ca         1 B1V       0.046300
      6 N11         -0.7420     0.0090     2.5280 nb         1 B1V      -0.157000
      7 C7           1.4910    -0.0260     3.3970 ca         1 B1V      -0.211000
      8 C5           1.9600    -0.1410     2.0850 ca         1 B1V       0.370300
      9 O13          3.2890    -0.2150     1.8320 oh         1 B1V      -0.626300
     10 N3           1.1300    -0.1820     1.0330 nb         1 B1V      -0.299000
     11 C1          -0.1920    -0.1040     1.3000 ca         1 B1V       0.247300
     12 S14         -1.3360    -0.1520    -0.0780 ss         1 B1V      -0.166300
     13 C15         -0.2490    -0.3100    -1.5800 c3         1 B1V      -0.080400
     14 C16         -1.0220    -0.3690    -2.9110 c          1 B1V       0.617100
     15 O23         -2.2420    -0.2500    -2.9430 o          1 B1V      -0.591100
     16 N17         -0.2900    -0.5960    -4.1020 n          1 B1V      -0.397800
     17 C18          1.1970    -0.5470    -4.1910 c6         1 B1V       0.094000
     18 C19          1.6520     0.6850    -5.0090 c6         1 B1V      -0.100400
     19 C20          0.9910     0.6940    -6.4100 c6         1 B1V      -0.074400
     20 C21         -0.5490     0.5740    -6.2930 c6         1 B1V      -0.100400
     21 C22         -0.9450    -0.6530    -5.4370 c6         1 B1V       0.094000
     22 H7           2.1850     0.0090     4.2320 ha         1 B1V       0.166000
     23 H13          3.3800    -0.2890     0.8580 ho         1 B1V       0.493000
     24 H151         0.3450    -1.2270    -1.4950 h1         1 B1V       0.091700
     25 H152         0.4300     0.5500    -1.6230 h1         1 B1V       0.091700
     26 H181         1.6720    -0.5220    -3.2020 h1         1 B1V       0.057950
     27 H182         1.5510    -1.4620    -4.6880 h1         1 B1V       0.057950
     28 H191         2.7460     0.6840    -5.1100 hc         1 B1V       0.051200
     29 H192         1.3870     1.6030    -4.4670 hc         1 B1V       0.051200
     30 H201         1.3810    -0.1410    -7.0080 hc         1 B1V       0.043700
     31 H202         1.2570     1.6150    -6.9470 hc         1 B1V       0.043700
     32 H211        -0.9980     0.4930    -7.2920 hc         1 B1V       0.051200
     33 H212        -0.9590     1.4850    -5.8370 hc         1 B1V       0.051200
     34 H221        -0.6300    -1.5740    -5.9490 h1         1 B1V       0.057950
     35 H222        -2.0390    -0.6970    -5.3410 h1         1 B1V       0.057950
@<TRIPOS>BOND
     1     1     2 1   
     2     2     3 1   
     3     2     4 1   
     4     2     5 1   
     5     5     6 ar  
     6     5     7 ar  
     7     6    11 ar  
     8     7     8 ar  
     9     7    22 1   
    10     8     9 1   
    11     8    10 ar  
    12     9    23 1   
    13    10    11 ar  
    14    11    12 1   
    15    12    13 1   
    16    13    14 1   
    17    13    24 1   
    18    13    25 1   
    19    14    15 2   
    20    14    16 1   
    21    16    17 1   
    22    16    21 1   
    23    17    18 1   
    24    17    26 1   
    25    17    27 1   
    26    18    19 1   
    27    18    28 1   
    28    18    29 1   
    29    19    20 1   
    30    19    30 1   
    31    19    31 1   
    32    20    21 1   
    33    20    32 1   
    34    20    33 1   
    35    21    34 1   
    36    21    35 1   
@<TRIPOS>SUBSTRUCTURE
     1 B1V         1 TEMP              0 ****  ****    0 ROOT
