@<TRIPOS>MOLECULE
B1V
   35    36     1     0     0
SMALL
abcg2


@<TRIPOS>ATOM
      1 F27         -1.2450     1.5010     4.6510 f          1 B1V      -0.100667
      2 C24         -0.6030     0.3320     4.6600 c3         1 B1V       0.269700
      3 F25         -1.5110    -0.6220     4.8730 f          1 B1V      -0.100667
      4 F26          0.2320     0.3360     5.6980 f          1 B1V      -0.100667
      5 C9           0.1130     0.1060     3.3520 ca         1 B1V       0.046300
      6 N11         -0.6910     0.0800     2.2960 nb         1 B1V      -0.157000
      7 C7           1.4740    -0.0520     3.2880 ca         1 B1V      -0.211000
      8 C5           1.9780    -0.2510     1.9950 ca         1 B1V       0.370300
      9 O13          3.2750    -0.4140     1.8410 oh         1 B1V      -0.626300
     10 N3           1.2000    -0.2820     0.9310 nb         1 B1V      -0.299000
     11 C1          -0.1010    -0.1140     1.1290 ca         1 B1V       0.247300
     12 S14         -1.2110    -0.1410    -0.2190 ss         1 B1V      -0.166300
     13 C15         -0.0720    -0.4040    -1.6000 c3         1 B1V      -0.080400
     14 C16         -0.9200    -0.4430    -2.8590 c          1 B1V       0.617100
     15 O23         -2.1360    -0.3190    -2.7720 o          1 B1V      -0.591100
     16 N17         -0.2740    -0.6310    -4.0200 n          1 B1V      -0.397800
     17 C18          1.1740    -0.6430    -4.1730 c6         1 B1V       0.094000
     18 C19          1.6410     0.6210    -4.8840 c6         1 B1V      -0.100400
     19 C20          0.9190     0.7940    -6.2160 c6         1 B1V      -0.074400
     20 C21         -0.5950     0.7080    -6.0400 c6         1 B1V      -0.100400
     21 C22         -0.9840    -0.5590    -5.2880 c6         1 B1V       0.094000
     22 H7           2.1250    -0.0300     4.1480 ha         1 B1V       0.166000
     23 H13          3.4810    -0.5480     0.9040 ho         1 B1V       0.493000
     24 H151         0.4730    -1.3390    -1.4600 h1         1 B1V       0.091700
     25 H152         0.6600     0.4040    -1.6340 h1         1 B1V       0.091700
     26 H181         1.6660    -0.7560    -3.2100 h1         1 B1V       0.057950
     27 H182         1.4430    -1.5260    -4.7610 h1         1 B1V       0.057950
     28 H191         2.7210     0.5670    -5.0370 hc         1 B1V       0.051200
     29 H192         1.4540     1.4830    -4.2360 hc         1 B1V       0.051200
     30 H201         1.2460     0.0110    -6.9070 hc         1 B1V       0.043700
     31 H202         1.1940     1.7470    -6.6730 hc         1 B1V       0.043700
     32 H211        -1.0950     0.7160    -7.0110 hc         1 B1V       0.051200
     33 H212        -0.9600     1.5780    -5.4870 hc         1 B1V       0.051200
     34 H221        -0.7150    -1.4420    -5.8780 h1         1 B1V       0.057950
     35 H222        -2.0550    -0.6010    -5.1090 h1         1 B1V       0.057950
@<TRIPOS>BOND
     1     1     2 1   
     2     2     3 1   
     3     2     4 1   
     4     2     5 1   
     5     5     6 ar  
     6     5     7 ar  
     7     6    11 ar  
     8     7     8 ar  
     9     7    22 1   
    10     8     9 1   
    11     8    10 ar  
    12     9    23 1   
    13    10    11 ar  
    14    11    12 1   
    15    12    13 1   
    16    13    14 1   
    17    13    24 1   
    18    13    25 1   
    19    14    15 2   
    20    14    16 1   
    21    16    17 1   
    22    16    21 1   
    23    17    18 1   
    24    17    26 1   
    25    17    27 1   
    26    18    19 1   
    27    18    28 1   
    28    18    29 1   
    29    19    20 1   
    30    19    30 1   
    31    19    31 1   
    32    20    21 1   
    33    20    32 1   
    34    20    33 1   
    35    21    34 1   
    36    21    35 1   
@<TRIPOS>SUBSTRUCTURE
     1 B1V         1 TEMP              0 ****  ****    0 ROOT
