@<TRIPOS>MOLECULE
B1W
   41    43     1     0     0
SMALL
abcg2


@<TRIPOS>ATOM
      1 C1           0.1340    -0.0770    -0.3600 cc         1 B1W       0.389800
      2 C4          -2.0190    -0.0000    -0.5180 cc         1 B1W       0.465000
      3 C6          -3.4300     0.0800    -0.1720 ca         1 B1W      -0.186500
      4 C10         -5.2110     0.1790     1.4640 ca         1 B1W      -0.190000
      5 C11         -3.8680     0.1090     1.1530 ca         1 B1W      -0.037000
      6 O4           5.6020     0.0210     0.5990 oh         1 B1W      -0.718000
      7 C13          4.3540    -0.1450    -0.0260 c6         1 B1W       0.142300
      8 C5           3.5240     1.1150     0.2280 c6         1 B1W       0.168300
      9 C14          4.1540     2.3440    -0.3930 c3         1 B1W       0.172600
     10 O6           3.3810     3.4700    -0.0520 oh         1 B1W      -0.711000
     11 C3           3.6160    -1.3620     0.5200 c6         1 B1W       0.099300
     12 O3           4.3720    -2.5060     0.1910 oh         1 B1W      -0.666000
     13 C2           2.2060    -1.4260    -0.0570 c6         1 B1W       0.114300
     14 O2           1.4360    -2.4420     0.5360 oh         1 B1W      -0.720000
     15 C12          1.5050    -0.0980     0.2240 c6         1 B1W       0.155000
     16 O5           2.2360     0.9640    -0.3370 os         1 B1W      -0.412000
     17 N5          -0.9970     0.0320     0.3710 na         1 B1W      -0.487000
     18 N3          -1.5220    -0.1190    -1.7240 nd         1 B1W      -0.370000
     19 N2          -0.1730    -0.1690    -1.6210 nd         1 B1W      -0.338000
     20 C7          -4.3960     0.1220    -1.1800 ca         1 B1W      -0.037000
     21 C8          -5.7400     0.1910    -0.8800 ca         1 B1W      -0.190000
     22 C9          -6.1810     0.2230     0.4520 ca         1 B1W       0.318000
     23 N12         -7.5110     0.3400     0.7520 nv         1 B1W      -1.082000
     24 H1          -5.5170     0.1980     2.5030 ha         1 B1W       0.115000
     25 H2          -3.1610     0.0700     1.9730 ha         1 B1W       0.119000
     26 H3           6.1080    -0.7890     0.4710 ho         1 B1W       0.523000
     27 H4           4.4700    -0.2680    -1.1150 h1         1 B1W       0.060700
     28 H5           3.4390     1.2650     1.3170 h1         1 B1W       0.057700
     29 H6           5.1810     2.4300    -0.0230 h1         1 B1W       0.038700
     30 H7           4.2120     2.2040    -1.4810 h1         1 B1W       0.038700
     31 H8           3.8380     4.2510    -0.3750 ho         1 B1W       0.505000
     32 H9           3.5350    -1.2500     1.6120 h1         1 B1W       0.050700
     33 H10          4.1760    -3.2030     0.8230 ho         1 B1W       0.453000
     34 H11          2.2670    -1.5560    -1.1460 h1         1 B1W       0.081700
     35 H12          1.6280    -3.2740     0.0950 ho         1 B1W       0.516000
     36 H13          1.4170     0.0260     1.3150 h1         1 B1W       0.045700
     37 H14         -1.0510     0.1260     1.3740 hn         1 B1W       0.361000
     38 H15         -4.0890     0.0980    -2.2180 ha         1 B1W       0.119000
     39 H16         -6.4660     0.2230    -1.6830 ha         1 B1W       0.115000
     40 H17         -7.7970     0.0610     1.6760 hn         1 B1W       0.458500
     41 H18         -8.1640     0.0580     0.0390 hn         1 B1W       0.458500
@<TRIPOS>BOND
     1     1    15 1   
     2     1    17 1   
     3     1    19 2   
     4     2     3 1   
     5     2    17 1   
     6     2    18 2   
     7     3     5 ar  
     8     3    20 ar  
     9     4     5 ar  
    10     4    22 ar  
    11     4    24 1   
    12     5    25 1   
    13     6     7 1   
    14     6    26 1   
    15     7     8 1   
    16     7    11 1   
    17     7    27 1   
    18     8     9 1   
    19     8    16 1   
    20     8    28 1   
    21     9    10 1   
    22     9    29 1   
    23     9    30 1   
    24    10    31 1   
    25    11    12 1   
    26    11    13 1   
    27    11    32 1   
    28    12    33 1   
    29    13    14 1   
    30    13    15 1   
    31    13    34 1   
    32    14    35 1   
    33    15    16 1   
    34    15    36 1   
    35    17    37 1   
    36    18    19 1   
    37    20    21 ar  
    38    20    38 1   
    39    21    22 ar  
    40    21    39 1   
    41    22    23 1   
    42    23    40 1   
    43    23    41 1   
@<TRIPOS>SUBSTRUCTURE
     1 B1W         1 TEMP              0 ****  ****    0 ROOT
