@<TRIPOS>MOLECULE
B1W
   41    43     1     0     0
SMALL
No Charge or Current Charge


@<TRIPOS>ATOM
      1 C1           0.1680    -1.2760     0.4740 cc         1 B1W       0.389800
      2 C4          -2.0000    -0.9800     0.2410 cc         1 B1W       0.465000
      3 C6          -3.3100    -0.3340     0.0880 ca         1 B1W      -0.186500
      4 C10         -4.6890     1.6780    -0.1080 ca         1 B1W      -0.190000
      5 C11         -3.4280     1.0740     0.0380 ca         1 B1W      -0.037000
      6 O4           5.5090     0.7120    -0.1210 oh         1 B1W      -0.718000
      7 C13          4.1130     0.4020    -0.2750 c6         1 B1W       0.142300
      8 C5           3.2650     0.8390     0.9580 c6         1 B1W       0.168300
      9 C14          3.3150     2.3830     1.2010 c3         1 B1W       0.172600
     10 O6           2.4740     2.8170     2.2910 oh         1 B1W      -0.711000
     11 C3           3.9500    -1.1290    -0.4860 c6         1 B1W       0.099300
     12 O3           4.6870    -1.5670    -1.6400 oh         1 B1W      -0.666000
     13 C2           2.4480    -1.5130    -0.6280 c6         1 B1W       0.114300
     14 O2           2.3440    -2.9490    -0.7820 oh         1 B1W      -0.720000
     15 C12          1.6540    -0.9760     0.6120 c6         1 B1W       0.155000
     16 O5           1.8810     0.4540     0.7510 os         1 B1W      -0.412000
     17 N5          -0.8090    -0.3230     0.3470 na         1 B1W      -0.487000
     18 N3          -1.7690    -2.2800     0.2970 nd         1 B1W      -0.370000
     19 N2          -0.4140    -2.4650     0.4450 nd         1 B1W      -0.338000
     20 C7          -4.4830    -1.1160    -0.0130 ca         1 B1W      -0.037000
     21 C8          -5.7390    -0.5030    -0.1590 ca         1 B1W      -0.190000
     22 C9          -5.8430     0.8920    -0.2060 ca         1 B1W       0.318000
     23 N12         -7.0660     1.4840    -0.3480 nv         1 B1W      -1.082000
     24 H1          -4.7630     2.7620    -0.1460 ha         1 B1W       0.115000
     25 H2          -2.5490     1.7100     0.1120 ha         1 B1W       0.119000
     26 H3           5.9670     0.1030    -0.7510 ho         1 B1W       0.523000
     27 H4           3.7140     0.9160    -1.1630 h1         1 B1W       0.060700
     28 H5           3.6410     0.3360     1.8600 h1         1 B1W       0.057700
     29 H6           4.3580     2.6650     1.3980 h1         1 B1W       0.038700
     30 H7           3.0140     2.8830     0.2700 h1         1 B1W       0.038700
     31 H8           2.5420     3.8000     2.3330 ho         1 B1W       0.505000
     32 H9           4.3390    -1.6380     0.4100 h1         1 B1W       0.050700
     33 H10          4.3040    -2.4480    -1.8610 ho         1 B1W       0.453000
     34 H11          2.0460    -1.0100    -1.5220 h1         1 B1W       0.081700
     35 H12          1.3850    -3.1870    -0.7600 ho         1 B1W       0.516000
     36 H13          2.0330    -1.4690     1.5190 h1         1 B1W       0.045700
     37 H14         -0.6640     0.6740     0.3430 hn         1 B1W       0.361000
     38 H15         -4.4270    -2.2020     0.0220 ha         1 B1W       0.119000
     39 H16         -6.6310    -1.1190    -0.2360 ha         1 B1W       0.115000
     40 H17         -7.1550     2.4910    -0.2200 hn         1 B1W       0.458500
     41 H18         -7.9120     0.9250    -0.2570 hn         1 B1W       0.458500
@<TRIPOS>BOND
     1     1    15 1   
     2     1    17 1   
     3     1    19 2   
     4     2     3 1   
     5     2    17 1   
     6     2    18 2   
     7     3     5 ar  
     8     3    20 ar  
     9     4     5 ar  
    10     4    22 ar  
    11     4    24 1   
    12     5    25 1   
    13     6     7 1   
    14     6    26 1   
    15     7     8 1   
    16     7    11 1   
    17     7    27 1   
    18     8     9 1   
    19     8    16 1   
    20     8    28 1   
    21     9    10 1   
    22     9    29 1   
    23     9    30 1   
    24    10    31 1   
    25    11    12 1   
    26    11    13 1   
    27    11    32 1   
    28    12    33 1   
    29    13    14 1   
    30    13    15 1   
    31    13    34 1   
    32    14    35 1   
    33    15    16 1   
    34    15    36 1   
    35    17    37 1   
    36    18    19 1   
    37    20    21 ar  
    38    20    38 1   
    39    21    22 ar  
    40    21    39 1   
    41    22    23 1   
    42    23    40 1   
    43    23    41 1   
@<TRIPOS>SUBSTRUCTURE
     1 B1W         1 TEMP              0 ****  ****    0 ROOT
