@<TRIPOS>MOLECULE
B1X
   50    53     1     0     0
SMALL
No Charge or Current Charge


@<TRIPOS>ATOM
      1 C1           2.6780    -0.7810     0.4180 ca         1 B1X       0.151500
      2 C2           2.4610    -2.0870     0.0580 ca         1 B1X      -0.104600
      3 C3           2.9530    -3.1000     0.9070 ca         1 B1X       0.454900
      4 C4           1.5590    -0.9100    -1.5030 cc         1 B1X       0.400700
      5 N1           3.6120    -2.8000     2.0370 nb         1 B1X      -0.304000
      6 N2           3.3410    -0.4440     1.5420 nb         1 B1X      -0.221000
      7 N3           0.0890    -5.5220    -0.5800 n1         1 B1X      -0.473000
      8 C6          -1.4390    -3.4290    -0.8470 ca         1 B1X      -0.019000
      9 C7          -1.3800    -2.3940     0.1050 ca         1 B1X      -0.007000
     10 C8          -2.3030    -3.3180    -1.9500 ca         1 B1X      -0.046000
     11 C9          -3.1040    -2.1750    -2.0980 ca         1 B1X      -0.125000
     12 C10         -3.0450    -1.1390    -1.1510 ca         1 B1X      -0.060000
     13 C11         -2.1790    -1.2340    -0.0330 ca         1 B1X      -0.174600
     14 C12         -2.0720    -0.1400     1.0080 c          1 B1X       0.638700
     15 O1          -1.3860    -0.2740     2.0080 o          1 B1X      -0.506100
     16 N4          -2.7800     0.9890     0.7580 ns         1 B1X      -0.621300
     17 S1          -2.7460     2.4120     1.6120 s6         1 B1X       1.441500
     18 O2          -3.5800     3.3750     0.8870 o          1 B1X      -0.533000
     19 O3          -2.9730     2.1260     3.0320 o          1 B1X      -0.533000
     20 C13         -0.7630     3.1810     0.0650 c3         1 B1X       0.189600
     21 C14          0.7880     3.2690     0.0250 c5         1 B1X       0.166300
     22 O5           1.3560     1.9890     0.4310 os         1 B1X      -0.429000
     23 C15          1.3670     3.5560    -1.4040 c5         1 B1X       0.108300
     24 O6           2.6440     4.2110    -1.3680 oh         1 B1X      -0.699000
     25 C16          1.5120     2.1020    -1.9360 c5         1 B1X       0.080300
     26 O7           2.3570     2.0360    -3.1020 oh         1 B1X      -0.688000
     27 C17          2.1240     1.4340    -0.6600 c5         1 B1X       0.314300
     28 N5           2.1090    -0.0270    -0.5690 na         1 B1X      -0.282300
     29 N6           1.7620    -2.1930    -1.1490 nd         1 B1X      -0.557100
     30 C18          3.7750    -1.4800     2.2990 ca         1 B1X       0.190900
     31 N7           2.7910    -4.4250     0.6510 nv         1 B1X      -1.057900
     32 H1           1.0470    -0.5750    -2.3980 h5         1 B1X       0.053800
     33 H8          -2.3540    -4.1120    -2.6930 ha         1 B1X       0.131000
     34 H9          -3.7730    -2.0910    -2.9510 ha         1 B1X       0.127000
     35 H10         -3.6850    -0.2730    -1.3020 ha         1 B1X       0.118000
     36 H11         -3.3220     1.0790    -0.0800 hn         1 B1X       0.343500
     37 H12         -1.0920     2.4470    -0.6820 h1         1 B1X       0.052700
     38 H13         -1.1860     4.1580    -0.2060 h1         1 B1X       0.052700
     39 H14          1.1000     4.0450     0.7370 h1         1 B1X       0.114700
     40 H15          0.6610     4.1370    -2.0150 h1         1 B1X       0.054700
     41 H16          3.1310     3.8660    -2.1570 ho         1 B1X       0.527000
     42 H17          0.5250     1.6700    -2.1560 h1         1 B1X       0.046700
     43 H18          1.7830     2.1480    -3.8980 ho         1 B1X       0.516000
     44 H19          3.1740     1.7360    -0.5550 h2         1 B1X       0.126700
     45 H20          4.3110    -1.2260     3.2120 h5         1 B1X       0.048100
     46 H21          2.0630    -4.6730    -0.0180 hn         1 B1X       0.512500
     47 H22          2.9250    -5.0750     1.4200 hn         1 B1X       0.512500
     48 O4          -1.1650     2.7950     1.3930 os         1 B1X      -0.544700
     49 H7          -0.6990    -2.4890     0.9500 ha         1 B1X       0.159000
     50 C5          -0.6050    -4.5890    -0.7010 cg         1 B1X       0.355000
@<TRIPOS>BOND
     1     1     2 ar  
     2     1     6 ar  
     3     1    28 1   
     4     2     3 ar  
     5     2    29 1   
     6     3     5 ar  
     7     3    31 1   
     8     4    28 1   
     9     4    29 2   
    10     4    32 1   
    11     5    30 ar  
    12     6    30 ar  
    13     7    50 3   
    14     8     9 ar  
    15     8    10 ar  
    16     8    50 1   
    17     9    13 ar  
    18     9    49 1   
    19    10    11 ar  
    20    10    33 1   
    21    11    12 ar  
    22    11    34 1   
    23    12    13 ar  
    24    12    35 1   
    25    13    14 1   
    26    14    15 2   
    27    14    16 1   
    28    16    17 1   
    29    16    36 1   
    30    17    18 2   
    31    17    19 2   
    32    17    48 1   
    33    20    21 1   
    34    20    37 1   
    35    20    38 1   
    36    20    48 1   
    37    21    22 1   
    38    21    23 1   
    39    21    39 1   
    40    22    27 1   
    41    23    24 1   
    42    23    25 1   
    43    23    40 1   
    44    24    41 1   
    45    25    26 1   
    46    25    27 1   
    47    25    42 1   
    48    26    43 1   
    49    27    28 1   
    50    27    44 1   
    51    30    45 1   
    52    31    46 1   
    53    31    47 1   
@<TRIPOS>SUBSTRUCTURE
     1 B1X         1 TEMP              0 ****  ****    0 ROOT
