@<TRIPOS>MOLECULE
B1X
   50    53     1     0     0
SMALL
bcc


@<TRIPOS>ATOM
      1 C1           3.0850    -0.7770     0.2980 ca         1 B1X       0.479800
      2 C2           2.5740    -2.0420     0.0600 ca         1 B1X      -0.235200
      3 C3           3.3820    -3.1270     0.4520 ca         1 B1X       0.783200
      4 C4           1.1140    -0.6920    -0.6490 cc         1 B1X       0.400700
      5 N1           4.5660    -2.8510     1.0110 nb         1 B1X      -0.830000
      6 N2           4.2570    -0.4880     0.8560 nb         1 B1X      -0.747000
      7 N3          -0.0710    -5.3320    -0.1940 n1         1 B1X      -0.383800
      8 C6          -1.8630    -3.5170    -0.5680 ca         1 B1X      -0.019000
      9 C7          -1.7850    -2.3350     0.1580 ca         1 B1X      -0.025000
     10 C8          -2.8770    -3.7130    -1.5060 ca         1 B1X      -0.064000
     11 C9          -3.8080    -2.7110    -1.7160 ca         1 B1X      -0.143000
     12 C10         -3.7150    -1.5140    -1.0220 ca         1 B1X      -0.078000
     13 C11         -2.6990    -1.3200    -0.0870 ca         1 B1X      -0.174600
     14 C12         -2.5300    -0.0580     0.6830 c          1 B1X       0.705700
     15 O1          -1.9420    -0.0040     1.7360 o          1 B1X      -0.506100
     16 N4          -3.0590     1.0660     0.0860 ns         1 B1X      -0.688300
     17 S1          -3.0530     2.5730     0.7980 s6         1 B1X       1.583100
     18 O2          -3.6850     3.4340    -0.1680 o          1 B1X      -0.603800
     19 O3          -3.5210     2.4860     2.1510 o          1 B1X      -0.603800
     20 C13         -0.7650     3.2020    -0.2770 c3         1 B1X       0.166400
     21 C14          0.6900     3.2720     0.1240 c5         1 B1X       0.143100
     22 O5           1.1200     2.0120     0.6360 os         1 B1X      -0.382600
     23 C15          1.5890     3.5930    -1.0720 c5         1 B1X       0.085100
     24 O6           2.6690     4.3660    -0.6210 oh         1 B1X      -0.576800
     25 C16          2.0510     2.1940    -1.4880 c5         1 B1X       0.057100
     26 O7           3.2690     2.1540    -2.1650 oh         1 B1X      -0.565800
     27 C17          2.1920     1.5200    -0.1270 c5         1 B1X       0.261800
     28 N5           2.1330     0.0870    -0.1670 na         1 B1X      -0.253000
     29 N6           1.3390    -1.9650    -0.5320 nd         1 B1X      -0.557100
     30 C18          4.9270    -1.5820     1.1780 ca         1 B1X       0.716900
     31 N7           3.0250    -4.3990     0.2780 nv         1 B1X      -0.947500
     32 H1           0.2220    -0.2610    -1.0770 h5         1 B1X       0.053800
     33 H8          -2.9320    -4.6390    -2.0620 ha         1 B1X       0.149000
     34 H9          -4.6070    -2.8580    -2.4290 ha         1 B1X       0.145000
     35 H10         -4.4610    -0.7520    -1.2050 ha         1 B1X       0.136000
     36 H11         -3.4400     1.0350    -0.8520 hn         1 B1X       0.343500
     37 H12         -0.9350     2.4260    -1.0280 h1         1 B1X       0.052700
     38 H13         -1.0820     4.1630    -0.6830 h1         1 B1X       0.052700
     39 H14          0.8090     4.0380     0.8960 h1         1 B1X       0.114700
     40 H15          1.0380     4.0970    -1.8760 h1         1 B1X       0.054700
     41 H16          3.3930     4.2580    -1.2500 ho         1 B1X       0.428000
     42 H17          1.2510     1.7100    -2.0630 h1         1 B1X       0.046700
     43 H18          3.1110     2.2920    -3.1050 ho         1 B1X       0.417000
     44 H19          3.1590     1.7740     0.3200 h2         1 B1X       0.126700
     45 H20          5.8960    -1.4290     1.6390 h5         1 B1X       0.048100
     46 H21          2.1070    -4.6480    -0.0540 hn         1 B1X       0.457300
     47 H22          3.6190    -5.1350     0.6200 hn         1 B1X       0.457300
     48 O4          -1.5130     2.9120     0.9220 os         1 B1X      -0.521500
     49 H7          -1.0050    -2.2050     0.8930 ha         1 B1X       0.177000
     50 C5          -0.8750    -4.5240    -0.3600 cg         1 B1X       0.265800
@<TRIPOS>BOND
     1     1     2 ar  
     2     1     6 ar  
     3     1    28 1   
     4     2     3 ar  
     5     2    29 1   
     6     3     5 ar  
     7     3    31 1   
     8     4    28 1   
     9     4    29 2   
    10     4    32 1   
    11     5    30 ar  
    12     6    30 ar  
    13     7    50 3   
    14     8     9 ar  
    15     8    10 ar  
    16     8    50 1   
    17     9    13 ar  
    18     9    49 1   
    19    10    11 ar  
    20    10    33 1   
    21    11    12 ar  
    22    11    34 1   
    23    12    13 ar  
    24    12    35 1   
    25    13    14 1   
    26    14    15 2   
    27    14    16 1   
    28    16    17 1   
    29    16    36 1   
    30    17    18 2   
    31    17    19 2   
    32    17    48 1   
    33    20    21 1   
    34    20    37 1   
    35    20    38 1   
    36    20    48 1   
    37    21    22 1   
    38    21    23 1   
    39    21    39 1   
    40    22    27 1   
    41    23    24 1   
    42    23    25 1   
    43    23    40 1   
    44    24    41 1   
    45    25    26 1   
    46    25    27 1   
    47    25    42 1   
    48    26    43 1   
    49    27    28 1   
    50    27    44 1   
    51    30    45 1   
    52    31    46 1   
    53    31    47 1   
@<TRIPOS>SUBSTRUCTURE
     1 B1X         1 TEMP              0 ****  ****    0 ROOT
