@<TRIPOS>MOLECULE
B1Y
   28    28     1     0     0
SMALL
No Charge or Current Charge


@<TRIPOS>ATOM
      1 N19         -0.0630     1.2720     1.7980 n8         1 B1Y      -0.972200
      2 C20          0.2770     0.3390     0.7080 c3         1 B1Y       0.158500
      3 C21          1.6910     0.7230     0.1730 c3         1 B1Y      -0.078700
      4 O22          1.6990     2.0930    -0.3650 oh         1 B1Y      -0.638000
      5 C24         -0.8630     0.3460    -0.3530 c3         1 B1Y      -0.099400
      6 C25         -2.2690    -0.0840     0.1630 c5         1 B1Y      -0.149700
      7 C26         -2.3440    -1.5210     0.7520 c5         1 B1Y      -0.091400
      8 C27         -3.8650    -1.8190     0.6510 c5         1 B1Y       0.097000
      9 N28         -4.1850    -1.1490    -0.6070 ns         1 B1Y      -0.520900
     10 C29         -3.3470    -0.1180    -0.9330 c          1 B1Y       0.560000
     11 O30         -3.3860     0.4600    -2.0080 o          1 B1Y      -0.563000
     12 H19          0.2800     2.1940     1.5070 hn         1 B1Y       0.384500
     13 H20          0.3260    -0.6710     1.1410 h1         1 B1Y       0.064700
     14 H21          2.3860     0.6800     1.0180 h2         1 B1Y       0.080700
     15 H23          1.4600     2.0270    -1.3170 ho         1 B1Y       0.432000
     16 H24         -0.9320     1.3460    -0.7990 hc         1 B1Y       0.059200
     17 H25         -0.5880    -0.3280    -1.1720 hc         1 B1Y       0.059200
     18 H26         -2.6210     0.6190     0.9270 hc         1 B1Y       0.060700
     19 H27         -1.7710    -2.2310     0.1440 hc         1 B1Y       0.066200
     20 H28         -1.9690    -1.5890     1.7800 hc         1 B1Y       0.066200
     21 H29         -4.0730    -2.8970     0.6250 h1         1 B1Y       0.035200
     22 H30         -4.4190    -1.3760     1.4890 h1         1 B1Y       0.035200
     23 H31         -4.9300    -1.4010    -1.2460 hn         1 B1Y       0.313500
     24 S1           2.4110    -0.5430    -1.0050 s6         1 B1Y       1.310600
     25 O3           2.0340    -1.8450    -0.4330 o          1 B1Y      -0.684200
     26 O1           1.7720    -0.2350    -2.2940 o          1 B1Y      -0.684200
     27 O2           3.8580    -0.2740    -0.9780 o          1 B1Y      -0.684200
     28 H2          -1.0800     1.3840     1.8220 hn         1 B1Y       0.384500
@<TRIPOS>BOND
     1     1     2 1   
     2     1    12 1   
     3     1    28 1   
     4     2     3 1   
     5     2     5 1   
     6     2    13 1   
     7     3     4 1   
     8     3    14 1   
     9     3    24 1   
    10     4    15 1   
    11     5     6 1   
    12     5    16 1   
    13     5    17 1   
    14     6     7 1   
    15     6    10 1   
    16     6    18 1   
    17     7     8 1   
    18     7    19 1   
    19     7    20 1   
    20     8     9 1   
    21     8    21 1   
    22     8    22 1   
    23     9    10 1   
    24     9    23 1   
    25    10    11 2   
    26    24    25 1   
    27    24    26 1   
    28    24    27 1   
@<TRIPOS>SUBSTRUCTURE
     1 B1Y         1 TEMP              0 ****  ****    0 ROOT
