@<TRIPOS>MOLECULE
B1Y
   28    28     1     0     0
SMALL
abcg2


@<TRIPOS>ATOM
      1 N19          0.4330    -0.0560     1.7180 n8         1 B1Y      -0.972200
      2 C20          0.2250     0.0090     0.2830 c3         1 B1Y       0.158500
      3 C21          1.4210     0.6570    -0.4170 c3         1 B1Y      -0.078700
      4 O22          1.2950     0.5640    -1.8110 oh         1 B1Y      -0.638000
      5 C24         -1.0660     0.7380    -0.1210 c3         1 B1Y      -0.099400
      6 C25         -2.3220     0.0340     0.3800 c5         1 B1Y      -0.149700
      7 C26         -2.4430    -1.4440    -0.0010 c5         1 B1Y      -0.091400
      8 C27         -3.9510    -1.6840    -0.0730 c5         1 B1Y       0.097000
      9 N28         -4.4510    -0.3730    -0.4300 ns         1 B1Y      -0.520900
     10 C29         -3.6060     0.6370    -0.1670 c          1 B1Y       0.560000
     11 O30         -3.8360     1.8250    -0.3270 o          1 B1Y      -0.563000
     12 H19          0.5150     0.8770     2.1030 hn         1 B1Y       0.384500
     13 H20          0.1670    -1.0260    -0.0730 h1         1 B1Y       0.064700
     14 H21          1.4640     1.7260    -0.1800 h2         1 B1Y       0.080700
     15 H23          1.3020    -0.3690    -2.0540 ho         1 B1Y       0.432000
     16 H24         -1.0330     1.7540     0.2860 hc         1 B1Y       0.059200
     17 H25         -1.1380     0.8330    -1.2030 hc         1 B1Y       0.059200
     18 H26         -2.4000     0.1390     1.4740 hc         1 B1Y       0.060700
     19 H27         -1.9980    -1.6130    -0.9850 hc         1 B1Y       0.066200
     20 H28         -1.9540    -2.1170     0.7020 hc         1 B1Y       0.066200
     21 H29         -4.2230    -2.4270    -0.8220 h1         1 B1Y       0.035200
     22 H30         -4.3540    -2.0140     0.8890 h1         1 B1Y       0.035200
     23 H31         -5.4140    -0.2110    -0.6800 hn         1 B1Y       0.313500
     24 S1           3.0500    -0.0380     0.0800 s6         1 B1Y       1.310600
     25 O3           3.3480     0.4580     1.4260 o          1 B1Y      -0.684200
     26 O1           2.8650    -1.5020    -0.0230 o          1 B1Y      -0.684200
     27 O2           3.9730     0.4960    -0.9430 o          1 B1Y      -0.684200
     28 H2          -0.3800    -0.4720     2.1560 hn         1 B1Y       0.384500
@<TRIPOS>BOND
     1     1     2 1   
     2     1    12 1   
     3     1    28 1   
     4     2     3 1   
     5     2     5 1   
     6     2    13 1   
     7     3     4 1   
     8     3    14 1   
     9     3    24 1   
    10     4    15 1   
    11     5     6 1   
    12     5    16 1   
    13     5    17 1   
    14     6     7 1   
    15     6    10 1   
    16     6    18 1   
    17     7     8 1   
    18     7    19 1   
    19     7    20 1   
    20     8     9 1   
    21     8    21 1   
    22     8    22 1   
    23     9    10 1   
    24     9    23 1   
    25    10    11 2   
    26    24    25 1   
    27    24    26 1   
    28    24    27 1   
@<TRIPOS>SUBSTRUCTURE
     1 B1Y         1 TEMP              0 ****  ****    0 ROOT
