@<TRIPOS>MOLECULE
B21
   25    26     1     0     0
SMALL
abcg2


@<TRIPOS>ATOM
      1 CAL         -6.9060     0.2070    10.7460 c3         1 B21       0.151900
      2 OAP         -5.6410    -0.0920    10.1580 os         1 B21      -0.339100
      3 CAH         -5.6030    -0.8580     9.0390 ca         1 B21       0.125100
      4 CAK         -6.7460    -1.3780     8.4330 ca         1 B21      -0.203000
      5 CAI         -6.6430    -2.1580     7.2860 ca         1 B21      -0.102000
      6 CAJ         -5.3970    -2.4270     6.7340 ca         1 B21      -0.147000
      7 CAG         -4.2580    -1.9100     7.3350 ca         1 B21      -0.071000
      8 CAF         -4.3250    -1.1200     8.4900 ca         1 B21      -0.096500
      9 CAB         -3.1060    -0.5960     9.0820 cc         1 B21       0.113500
     10 OAM         -1.9400    -0.9230     8.4430 os         1 B21      -0.234000
     11 CAD         -2.8050     0.1850    10.1720 cd         1 B21      -0.147000
     12 CAC         -1.3910     0.3360    10.1920 cd         1 B21      -0.227000
     13 CAA         -0.8960    -0.3520     9.1220 cc         1 B21       0.149500
     14 CAE          0.4960    -0.5640     8.6060 c          1 B21       0.619500
     15 OAO          0.6280    -1.2490     7.5630 o          1 B21      -0.700500
     16 OAN          1.4100    -0.0230     9.2810 o          1 B21      -0.700500
     17 HAL1        -6.6880     0.8280    11.6110 h1         1 B21       0.033367
     18 HAL2        -7.5420     0.7570    10.0500 h1         1 B21       0.033367
     19 HAL3        -7.4150    -0.7050    11.0670 h1         1 B21       0.033367
     20 HAK         -7.7210    -1.1770     8.8520 ha         1 B21       0.100000
     21 HAI         -7.5430    -2.5520     6.8300 ha         1 B21       0.096000
     22 HAJ         -5.3090    -3.0340     5.8430 ha         1 B21       0.106000
     23 HAG         -3.2870    -2.1160     6.9070 ha         1 B21       0.147000
     24 HAD         -3.5130     0.5940    10.8680 ha         1 B21       0.123000
     25 HAC         -0.8070     0.8870    10.9090 ha         1 B21       0.137000
@<TRIPOS>BOND
     1     1     2 1   
     2     1    17 1   
     3     1    18 1   
     4     1    19 1   
     5     2     3 1   
     6     3     4 ar  
     7     3     8 ar  
     8     4     5 ar  
     9     4    20 1   
    10     5     6 ar  
    11     5    21 1   
    12     6     7 ar  
    13     6    22 1   
    14     7     8 ar  
    15     7    23 1   
    16     8     9 1   
    17     9    10 1   
    18     9    11 2   
    19    10    13 1   
    20    11    12 1   
    21    11    24 1   
    22    12    13 2   
    23    12    25 1   
    24    13    14 1   
    25    14    15 1   
    26    14    16 1   
@<TRIPOS>SUBSTRUCTURE
     1 B21         1 TEMP              0 ****  ****    0 ROOT
