@<TRIPOS>MOLECULE
B21
   25    26     1     0     0
SMALL
No Charge or Current Charge


@<TRIPOS>ATOM
      1 CAL         -6.8050     0.6140    10.5720 c3         1 B21       0.151900
      2 OAP         -5.5860     0.1140     9.9960 os         1 B21      -0.339100
      3 CAH         -5.5710    -0.8210     8.9770 ca         1 B21       0.125100
      4 CAK         -6.7720    -1.3260     8.4240 ca         1 B21      -0.203000
      5 CAI         -6.7370    -2.2470     7.3660 ca         1 B21      -0.102000
      6 CAJ         -5.5050    -2.6690     6.8470 ca         1 B21      -0.147000
      7 CAG         -4.3070    -2.1750     7.3880 ca         1 B21      -0.071000
      8 CAF         -4.3250    -1.2580     8.4600 ca         1 B21      -0.096500
      9 CAB         -3.0440    -0.7780     8.9900 cc         1 B21       0.113500
     10 OAM         -1.9410    -0.5920     8.1920 os         1 B21      -0.234000
     11 CAD         -2.7420    -0.5760    10.3090 cd         1 B21      -0.147000
     12 CAC         -1.3820    -0.2000    10.3440 cd         1 B21      -0.227000
     13 CAA         -0.9180    -0.2120     9.0460 cc         1 B21       0.149500
     14 CAE          0.4750     0.1170     8.5840 c          1 B21       0.619500
     15 OAO          0.7350     0.0550     7.3880 o          1 B21      -0.700500
     16 OAN          1.3170     0.4400     9.4140 o          1 B21      -0.700500
     17 HAL1        -6.5800     1.3410    11.3630 h1         1 B21       0.033367
     18 HAL2        -7.4180     1.1180     9.8130 h1         1 B21       0.033367
     19 HAL3        -7.3910    -0.2010    11.0160 h1         1 B21       0.033367
     20 HAK         -7.7420    -1.0110     8.7980 ha         1 B21       0.100000
     21 HAI         -7.6640    -2.6300     6.9460 ha         1 B21       0.096000
     22 HAJ         -5.4770    -3.3800     6.0240 ha         1 B21       0.106000
     23 HAG         -3.3580    -2.5140     6.9780 ha         1 B21       0.147000
     24 HAD         -3.4090    -0.6930    11.1570 ha         1 B21       0.123000
     25 HAC         -0.7990     0.0450    11.2260 ha         1 B21       0.137000
@<TRIPOS>BOND
     1     1     2 1   
     2     1    17 1   
     3     1    18 1   
     4     1    19 1   
     5     2     3 1   
     6     3     4 ar  
     7     3     8 ar  
     8     4     5 ar  
     9     4    20 1   
    10     5     6 ar  
    11     5    21 1   
    12     6     7 ar  
    13     6    22 1   
    14     7     8 ar  
    15     7    23 1   
    16     8     9 1   
    17     9    10 1   
    18     9    11 2   
    19    10    13 1   
    20    11    12 1   
    21    11    24 1   
    22    12    13 2   
    23    12    25 1   
    24    13    14 1   
    25    14    15 1   
    26    14    16 1   
@<TRIPOS>SUBSTRUCTURE
     1 B21         1 TEMP              0 ****  ****    0 ROOT
