@<TRIPOS>MOLECULE
B23
   23    24     1     0     0
SMALL
No Charge or Current Charge


@<TRIPOS>ATOM
      1 OAN          1.7150     0.2790     9.3750 o          1 B23      -0.691500
      2 CAE          0.7780     0.2020     8.5890 c          1 B23       0.618500
      3 OAO          0.9380     0.2950     7.3780 o          1 B23      -0.691500
      4 CAA         -0.6100    -0.0130     9.1280 cc         1 B23       0.165500
      5 OAM         -1.7350    -0.1210     8.3270 os         1 B23      -0.222000
      6 CAC         -0.9700    -0.1460    10.4520 cd         1 B23      -0.222000
      7 CAD         -2.3680    -0.3340    10.4920 cd         1 B23      -0.121000
      8 CAB         -2.7910    -0.2800     9.1920 cc         1 B23       0.072500
      9 CAF         -4.1620    -0.5150     8.7320 ca         1 B23      -0.000500
     10 CAG         -4.3590    -1.4210     7.6700 ca         1 B23      -0.106000
     11 CAJ         -5.6510    -1.7280     7.2130 ca         1 B23      -0.082000
     12 CAI         -6.7660    -1.1300     7.8150 ca         1 B23      -0.141000
     13 CAK         -6.5910    -0.2150     8.8650 ca         1 B23      -0.068000
     14 CAH         -5.2940     0.1080     9.3260 ca         1 B23      -0.167200
     15 NAL         -5.1530     1.1280    10.4050 no         1 B23       0.674200
     16 OAQ         -4.3500     2.0540    10.2270 o          1 B23      -0.398000
     17 OAP         -5.9690     1.0970    11.3350 o          1 B23      -0.398000
     18 HAC         -0.2940    -0.1220    11.3000 ha         1 B23       0.145000
     19 HAD         -2.9820    -0.4990    11.3720 ha         1 B23       0.124000
     20 HAG         -3.5010    -1.9040     7.2060 ha         1 B23       0.154000
     21 HAJ         -5.7850    -2.4350     6.3970 ha         1 B23       0.114000
     22 HAI         -7.7680    -1.3680     7.4630 ha         1 B23       0.112000
     23 HAK         -7.4660     0.2560     9.3110 ha         1 B23       0.128000
@<TRIPOS>BOND
     1     1     2 1   
     2     2     3 1   
     3     2     4 1   
     4     4     5 1   
     5     4     6 2   
     6     5     8 1   
     7     6     7 1   
     8     6    18 1   
     9     7     8 2   
    10     7    19 1   
    11     8     9 1   
    12     9    10 ar  
    13     9    14 ar  
    14    10    11 ar  
    15    10    20 1   
    16    11    12 ar  
    17    11    21 1   
    18    12    13 ar  
    19    12    22 1   
    20    13    14 ar  
    21    13    23 1   
    22    14    15 1   
    23    15    16 1   
    24    15    17 1   
@<TRIPOS>SUBSTRUCTURE
     1 B23         1 TEMP              0 ****  ****    0 ROOT
