@<TRIPOS>MOLECULE
B23
   23    24     1     0     0
SMALL
abcg2


@<TRIPOS>ATOM
      1 OAN          1.7180     0.0210     9.1340 o          1 B23      -0.691500
      2 CAE          0.6960    -0.1940     8.4350 c          1 B23       0.618500
      3 OAO          0.6480    -0.4580     7.2100 o          1 B23      -0.691500
      4 CAA         -0.6110    -0.1200     9.1750 cc         1 B23       0.165500
      5 OAM         -1.7700    -0.3090     8.4740 os         1 B23      -0.222000
      6 CAC         -0.9190     0.1110    10.4860 cd         1 B23      -0.222000
      7 CAD         -2.3350     0.0680    10.5960 cd         1 B23      -0.121000
      8 CAB         -2.8180    -0.1870     9.3410 cc         1 B23       0.072500
      9 CAF         -4.1390    -0.4320     8.7850 ca         1 B23      -0.000500
     10 CAG         -4.2640    -1.2280     7.6360 ca         1 B23      -0.106000
     11 CAJ         -5.5040    -1.5570     7.1110 ca         1 B23      -0.082000
     12 CAI         -6.6730    -1.1230     7.7300 ca         1 B23      -0.141000
     13 CAK         -6.5870    -0.3400     8.8710 ca         1 B23      -0.068000
     14 CAH         -5.3380     0.0130     9.3610 ca         1 B23      -0.167200
     15 NAL         -5.3440     0.9440    10.4990 no         1 B23       0.674200
     16 OAQ         -4.7000     1.9770    10.4010 o          1 B23      -0.398000
     17 OAP         -6.0300     0.6500    11.4680 o          1 B23      -0.398000
     18 HAC         -0.2110     0.2890    11.2770 ha         1 B23       0.145000
     19 HAD         -2.9140     0.1920    11.4960 ha         1 B23       0.124000
     20 HAG         -3.3650    -1.6040     7.1710 ha         1 B23       0.154000
     21 HAJ         -5.5580    -2.1690     6.2210 ha         1 B23       0.114000
     22 HAI         -7.6420    -1.3860     7.3280 ha         1 B23       0.112000
     23 HAK         -7.4750     0.0290     9.3650 ha         1 B23       0.128000
@<TRIPOS>BOND
     1     1     2 1   
     2     2     3 1   
     3     2     4 1   
     4     4     5 1   
     5     4     6 2   
     6     5     8 1   
     7     6     7 1   
     8     6    18 1   
     9     7     8 2   
    10     7    19 1   
    11     8     9 1   
    12     9    10 ar  
    13     9    14 ar  
    14    10    11 ar  
    15    10    20 1   
    16    11    12 ar  
    17    11    21 1   
    18    12    13 ar  
    19    12    22 1   
    20    13    14 ar  
    21    13    23 1   
    22    14    15 1   
    23    15    16 1   
    24    15    17 1   
@<TRIPOS>SUBSTRUCTURE
     1 B23         1 TEMP              0 ****  ****    0 ROOT
