@<TRIPOS>MOLECULE
B25
   23    24     1     0     0
SMALL
No Charge or Current Charge


@<TRIPOS>ATOM
      1 C1          -0.3950     0.9340     0.1130 ca         1 B25      -0.006200
      2 N1           3.6800    -0.4070    -0.1090 no         1 B25       0.698200
      3 O1           3.8900    -1.6200    -0.2450 o          1 B25      -0.407500
      4 C2           0.6260     1.8880     0.1970 ca         1 B25      -0.141000
      5 N2          -4.6290     0.5710    -0.3340 nv         1 B25      -1.079200
      6 O2           4.5810     0.4390    -0.0350 o          1 B25      -0.407500
      7 C3           1.9650     1.4450     0.1230 ca         1 B25      -0.031000
      8 N3          -4.2900    -1.4580     0.6000 n2         1 B25      -0.798100
      9 C4           2.2620     0.0600    -0.0320 ca         1 B25      -0.218200
     10 N4          -1.7630     1.1450     0.1640 na         1 B25      -0.209700
     11 C5           1.1990    -0.8770    -0.1130 ca         1 B25       0.032000
     12 C6          -0.1130    -0.3910    -0.0360 ca         1 B25      -0.138800
     13 C7          -1.3650    -1.0830    -0.0850 cc         1 B25      -0.149200
     14 C8          -2.3790    -0.1320     0.0220 cd         1 B25      -0.140700
     15 C9          -3.8220    -0.4140     0.0470 cf         1 B25       0.671500
     16 H2           0.3970     2.9440     0.3160 ha         1 B25       0.128000
     17 H1N2        -5.6060     0.3650    -0.5030 hn         1 B25       0.461000
     18 H2N2        -4.2370     1.3060    -0.9110 hn         1 B25       0.461000
     19 H3           2.7640     2.1820     0.1880 ha         1 B25       0.150000
     20 H1N3        -5.2970    -1.3190     0.7370 hn         1 B25       0.380400
     21 HN4         -2.2340     2.0320     0.3130 hn         1 B25       0.360000
     22 H5           1.3790    -1.9440    -0.2310 ha         1 B25       0.155000
     23 H7          -1.5200    -2.1570    -0.1820 ha         1 B25       0.230000
@<TRIPOS>BOND
     1     1     4 ar  
     2     1    10 1   
     3     1    12 ar  
     4     2     3 1   
     5     2     6 1   
     6     2     9 1   
     7     4     7 ar  
     8     4    16 1   
     9     5    15 1   
    10     5    17 1   
    11     5    18 1   
    12     7     9 ar  
    13     7    19 1   
    14     8    15 2   
    15     8    20 1   
    16     9    11 ar  
    17    10    14 1   
    18    10    21 1   
    19    11    12 ar  
    20    11    22 1   
    21    12    13 1   
    22    13    14 2   
    23    13    23 1   
    24    14    15 1   
@<TRIPOS>SUBSTRUCTURE
     1 B25         1 TEMP              0 ****  ****    0 ROOT
