@<TRIPOS>MOLECULE
B25
   23    24     1     0     0
SMALL
abcg2


@<TRIPOS>ATOM
      1 C1          -0.3980     0.9160     0.1010 ca         1 B25      -0.006200
      2 N1           3.5780    -0.3520    -0.1060 no         1 B25       0.698200
      3 O1           3.8170    -1.5350    -0.2070 o          1 B25      -0.407500
      4 C2           0.6120     1.8780     0.1480 ca         1 B25      -0.141000
      5 N2          -4.5180     0.7480    -0.2260 nv         1 B25      -1.079200
      6 O2           4.4390     0.4980    -0.0610 o          1 B25      -0.407500
      7 C3           1.9140     1.4430     0.0790 ca         1 B25      -0.031000
      8 N3          -4.2510    -1.4960     0.4870 n2         1 B25      -0.798100
      9 C4           2.1950     0.0690    -0.0340 ca         1 B25      -0.218200
     10 N4          -1.7430     1.0540     0.1450 na         1 B25      -0.209700
     11 C5           1.2060    -0.8950    -0.0790 ca         1 B25       0.032000
     12 C6          -0.1170    -0.4680    -0.0070 ca         1 B25      -0.138800
     13 C7          -1.3700    -1.1460    -0.0100 cc         1 B25      -0.149200
     14 C8          -2.3360    -0.1860     0.0870 cd         1 B25      -0.140700
     15 C9          -3.7980    -0.3640     0.1130 cf         1 B25       0.671500
     16 H2           0.3860     2.9320     0.2340 ha         1 B25       0.128000
     17 H1N2        -5.5150     0.6300    -0.3240 hn         1 B25       0.461000
     18 H2N2        -4.1300     1.3770    -0.9110 hn         1 B25       0.461000
     19 H3           2.7160     2.1650     0.1110 ha         1 B25       0.150000
     20 H1N3        -5.2650    -1.5260     0.4190 hn         1 B25       0.380400
     21 HN4         -2.2290     1.9230     0.3040 hn         1 B25       0.360000
     22 H5           1.4390    -1.9470    -0.1660 ha         1 B25       0.155000
     23 H7          -1.5400    -2.2070    -0.0920 ha         1 B25       0.230000
@<TRIPOS>BOND
     1     1     4 ar  
     2     1    10 1   
     3     1    12 ar  
     4     2     3 1   
     5     2     6 1   
     6     2     9 1   
     7     4     7 ar  
     8     4    16 1   
     9     5    15 1   
    10     5    17 1   
    11     5    18 1   
    12     7     9 ar  
    13     7    19 1   
    14     8    15 2   
    15     8    20 1   
    16     9    11 ar  
    17    10    14 1   
    18    10    21 1   
    19    11    12 ar  
    20    11    22 1   
    21    12    13 1   
    22    13    14 2   
    23    13    23 1   
    24    14    15 1   
@<TRIPOS>SUBSTRUCTURE
     1 B25         1 TEMP              0 ****  ****    0 ROOT
