@<TRIPOS>MOLECULE
B26
  107   110     1     0     0
SMALL
abcg2


@<TRIPOS>ATOM
      1 C23          2.0670    -1.2740     2.0290 c          1 B26       0.622700
      2 C24          3.1410    -0.7840     2.9430 ca         1 B26      -0.125600
      3 C25          2.8540    -0.6550     4.2970 ca         1 B26      -0.067000
      4 C26          3.8020    -0.2220     5.2180 ca         1 B26      -0.075300
      5 C27          5.0780     0.0570     4.7240 ca         1 B26      -0.004900
      6 C28          5.3980    -0.0880     3.3820 ca         1 B26      -0.083000
      7 C29          4.4250    -0.5060     2.4890 ca         1 B26      -0.072000
      8 C30          3.4380    -0.0750     6.6640 c3         1 B26      -0.041800
      9 O6           1.2050    -2.0530     2.4120 o          1 B26      -0.607100
     10 BR           6.4340     0.6440     5.9000 br         1 B26      -0.129100
     11 N1           2.1120    -0.8120     0.7710 ns         1 B26      -0.470900
     12 C9           1.2440    -1.3190    -0.2610 c3         1 B26       0.050700
     13 C10         -0.2180    -1.0570     0.1260 c          1 B26       0.605100
     14 O4          -0.5240    -0.0350     0.7170 o          1 B26      -0.617100
     15 C8           1.5990    -2.7640    -0.6610 c3         1 B26      -0.030100
     16 C5           3.0770    -2.9050    -0.8840 ca         1 B26      -0.154300
     17 C6           3.6700    -2.4610    -2.0630 ca         1 B26      -0.132000
     18 C4           3.9010    -3.4200     0.1100 ca         1 B26      -0.132000
     19 C7           5.0450    -2.5100    -2.2330 ca         1 B26      -0.079000
     20 C3           5.2780    -3.4700    -0.0540 ca         1 B26      -0.079000
     21 C2           5.8680    -2.9950    -1.2200 ca         1 B26      -0.037300
     22 C1           7.3480    -3.0620    -1.4110 c3         1 B26      -0.046700
     23 F1           7.7470    -1.9650    -2.1530 f          1 B26      -0.158500
     24 F2           7.9620    -2.8860    -0.1840 f          1 B26      -0.158500
     25 P1           7.9580    -4.6530    -2.2210 p5         1 B26       1.260500
     26 O2           9.4730    -4.4730    -2.2850 o          1 B26      -0.898167
     27 O3           7.4770    -5.7250    -1.2500 o          1 B26      -0.898167
     28 O1           7.2520    -4.6270    -3.5730 o          1 B26      -0.898167
     29 N2          -1.1130    -1.9620    -0.2980 ns         1 B26      -0.494900
     30 C11         -2.5300    -1.8370    -0.0750 c3         1 B26       0.039700
     31 C12         -3.0960    -3.1930     0.3280 c          1 B26       0.594100
     32 C13         -3.2850    -1.3610    -1.3250 c3         1 B26      -0.083400
     33 C14         -2.8520     0.0080    -1.8270 c3         1 B26      -0.096400
     34 C15         -3.7240     0.4420    -3.0010 c3         1 B26       0.106000
     35 C16         -3.7600     2.8890    -2.9520 c          1 B26       0.614700
     36 C17         -3.2680     4.1530    -3.5890 ca         1 B26      -0.149600
     37 C18         -4.0340     5.3050    -3.4390 ca         1 B26      -0.047000
     38 C19         -3.6150     6.4990    -4.0040 ca         1 B26      -0.127000
     39 C20         -2.4200     6.5660    -4.7070 ca         1 B26      -0.067000
     40 C21         -1.6520     5.4180    -4.8340 ca         1 B26       0.184000
     41 C22         -2.0620     4.2130    -4.2850 ca         1 B26      -0.054000
     42 O7          -2.5910    -4.2430    -0.0420 o          1 B26      -0.602100
     43 O5          -4.4900     2.9300    -1.9710 o          1 B26      -0.607100
     44 I            0.1770     5.5070    -5.8700 i          1 B26      -0.300000
     45 N4          -4.2310    -3.1310     1.0330 ns         1 B26      -0.495900
     46 C31         -5.0280    -4.2960     1.3040 c3         1 B26       0.016700
     47 C32         -4.3890    -5.1590     2.3960 c          1 B26       0.594100
     48 C33         -6.4310    -3.8710     1.7610 c3         1 B26       0.091000
     49 C34         -7.0440    -1.7520     0.6770 c          1 B26       0.597100
     50 C35         -7.8270    -1.1330    -0.4680 c3         1 B26      -0.103100
     51 C36         -8.1480     0.3110    -0.2260 ca         1 B26      -0.085300
     52 C37         -9.3260     0.6610     0.4370 ca         1 B26      -0.145000
     53 C38         -9.6250     1.9890     0.6960 ca         1 B26       0.037100
     54 C39         -8.7390     2.9990     0.2850 ca         1 B26       0.119100
     55 C40         -7.5750     2.6510    -0.3750 ca         1 B26      -0.108000
     56 C41         -7.2820     1.3150    -0.6260 ca         1 B26      -0.067000
     57 C42        -11.6700     1.4840     1.7980 c3         1 B26       0.159900
     58 O8          -3.7430    -4.6640     3.3020 o          1 B26      -0.565100
     59 O9          -6.3530    -1.0780     1.4290 o          1 B26      -0.586100
     60 O10        -10.7330     2.4330     1.3290 os         1 B26      -0.371100
     61 O11         -9.0060     4.3020     0.5190 oh         1 B26      -0.536100
     62 N5          -4.6550    -6.4660     2.2880 nt         1 B26      -0.611000
     63 H26          1.8570    -0.8890     4.6510 ha         1 B26       0.129000
     64 H27          6.3990     0.1170     3.0260 ha         1 B26       0.143000
     65 H28          4.6950    -0.6420     1.4500 ha         1 B26       0.150000
     66 H29          3.5660     0.9530     7.0070 hc         1 B26       0.041700
     67 H30          2.3980    -0.3530     6.8270 hc         1 B26       0.041700
     68 H31          4.0560    -0.7080     7.3020 hc         1 B26       0.041700
     69 H1           2.7910    -0.1170     0.5140 hn         1 B26       0.329500
     70 H14          1.4180    -0.6830    -1.1330 h1         1 B26       0.064700
     71 H12          1.2710    -3.4610     0.1120 hc         1 B26       0.049700
     72 H13          1.0670    -3.0170    -1.5820 hc         1 B26       0.049700
     73 H10          3.0520    -2.0690    -2.8630 ha         1 B26       0.079500
     74 H9           3.4620    -3.7870     1.0310 ha         1 B26       0.079500
     75 H11          5.4730    -2.1610    -3.1620 ha         1 B26       0.135500
     76 H8           5.8860    -3.8790     0.7420 ha         1 B26       0.135500
     77 H2          -0.8030    -2.8160    -0.7350 hn         1 B26       0.344500
     78 H3          -2.8350     1.7670    -4.3780 hn         1 B26       0.319500
     79 H15         -2.6840    -1.1150     0.7300 h1         1 B26       0.100700
     80 H16         -3.1670    -2.1050    -2.1190 hc         1 B26       0.037700
     81 H17         -4.3520    -1.3340    -1.0840 hc         1 B26       0.037700
     82 H18         -2.9250     0.7430    -1.0220 hc         1 B26       0.069200
     83 H19         -1.8090    -0.0160    -2.1500 hc         1 B26       0.069200
     84 H20         -4.7760     0.4480    -2.7050 h1         1 B26       0.042200
     85 H21         -3.6330    -0.2730    -3.8190 h1         1 B26       0.042200
     86 H22         -4.9630     5.2670    -2.8860 ha         1 B26       0.136000
     87 H23         -4.2180     7.3900    -3.8960 ha         1 B26       0.116000
     88 H24         -2.1000     7.5050    -5.1390 ha         1 B26       0.124000
     89 H25         -1.4340     3.3370    -4.3760 ha         1 B26       0.133000
     90 H4          -4.5580    -2.2390     1.3780 hn         1 B26       0.352500
     91 H7          -7.6920    -3.5880     0.0970 hn         1 B26       0.309500
     92 H32         -5.1260    -4.8840     0.3870 h1         1 B26       0.061700
     93 H33         -6.3660    -3.3050     2.6910 h1         1 B26       0.067700
     94 H34         -7.0190    -4.7640     1.9670 h1         1 B26       0.067700
     95 H35         -7.2050    -1.2350    -1.3630 hc         1 B26       0.059200
     96 H36         -8.7330    -1.7110    -0.6640 hc         1 B26       0.059200
     97 H37        -10.0070    -0.1230     0.7470 ha         1 B26       0.106000
     98 H38         -6.8910     3.4260    -0.6960 ha         1 B26       0.150000
     99 H39         -6.3620     1.0730    -1.1420 ha         1 B26       0.134000
    100 H40        -12.4620     2.0460     2.2880 h1         1 B26       0.037367
    101 H41        -12.1020     0.9030     0.9800 h1         1 B26       0.037367
    102 H42        -11.2230     0.7980     2.5220 h1         1 B26       0.037367
    103 H45         -9.8390     4.3880     0.9990 ho         1 B26       0.474000
    104 H5          -5.1420    -6.8460     1.4950 hn         1 B26       0.310500
    105 H6          -4.3270    -7.1170     2.9830 hn         1 B26       0.310500
    106 N6          -7.1340    -3.0900     0.7720 ns         1 B26      -0.514900
    107 N3          -3.3700     1.7420    -3.5270 ns         1 B26      -0.499900
@<TRIPOS>BOND
     1     1     2 1   
     2     1     9 2   
     3     1    11 1   
     4     2     3 ar  
     5     2     7 ar  
     6     3     4 ar  
     7     3    63 1   
     8     4     5 ar  
     9     4     8 1   
    10     5     6 ar  
    11     5    10 1   
    12     6     7 ar  
    13     6    64 1   
    14     7    65 1   
    15     8    66 1   
    16     8    67 1   
    17     8    68 1   
    18    11    12 1   
    19    11    69 1   
    20    12    13 1   
    21    12    15 1   
    22    12    70 1   
    23    13    14 2   
    24    13    29 1   
    25    15    16 1   
    26    15    71 1   
    27    15    72 1   
    28    16    17 ar  
    29    16    18 ar  
    30    17    19 ar  
    31    17    73 1   
    32    18    20 ar  
    33    18    74 1   
    34    19    21 ar  
    35    19    75 1   
    36    20    21 ar  
    37    20    76 1   
    38    21    22 1   
    39    22    23 1   
    40    22    24 1   
    41    22    25 1   
    42    25    26 1   
    43    25    27 1   
    44    25    28 1   
    45    29    30 1   
    46    29    77 1   
    47    30    31 1   
    48    30    32 1   
    49    30    79 1   
    50    31    42 2   
    51    31    45 1   
    52    32    33 1   
    53    32    80 1   
    54    32    81 1   
    55    33    34 1   
    56    33    82 1   
    57    33    83 1   
    58    34    84 1   
    59    34    85 1   
    60    34   107 1   
    61    35    36 1   
    62    35    43 2   
    63    35   107 1   
    64    36    37 ar  
    65    36    41 ar  
    66    37    38 ar  
    67    37    86 1   
    68    38    39 ar  
    69    38    87 1   
    70    39    40 ar  
    71    39    88 1   
    72    40    41 ar  
    73    40    44 1   
    74    41    89 1   
    75    45    46 1   
    76    45    90 1   
    77    46    47 1   
    78    46    48 1   
    79    46    92 1   
    80    47    58 2   
    81    47    62 1   
    82    48    93 1   
    83    48    94 1   
    84    48   106 1   
    85    49    50 1   
    86    49    59 2   
    87    49   106 1   
    88    50    51 1   
    89    50    95 1   
    90    50    96 1   
    91    51    52 ar  
    92    51    56 ar  
    93    52    53 ar  
    94    52    97 1   
    95    53    54 ar  
    96    53    60 1   
    97    54    55 ar  
    98    54    61 1   
    99    55    56 ar  
   100    55    98 1   
   101    56    99 1   
   102    57    60 1   
   103    57   100 1   
   104    57   101 1   
   105    57   102 1   
   106    61   103 1   
   107    62   104 1   
   108    62   105 1   
   109    78   107 1   
   110    91   106 1   
@<TRIPOS>SUBSTRUCTURE
     1 B26         1 TEMP              0 ****  ****    0 ROOT
