@<TRIPOS>MOLECULE
B26
  107   110     1     0     0
SMALL
No Charge or Current Charge


@<TRIPOS>ATOM
      1 C23          2.8200    -0.8450     1.8100 c          1 B26       0.622700
      2 C24          4.0370    -0.0340     2.2180 ca         1 B26      -0.125600
      3 C25          4.3770     0.0590     3.5880 ca         1 B26      -0.067000
      4 C26          5.4990     0.7960     4.0170 ca         1 B26      -0.075300
      5 C27          6.2990     1.4510     3.0590 ca         1 B26      -0.004900
      6 C28          5.9770     1.3660     1.6960 ca         1 B26      -0.083000
      7 C29          4.8570     0.6310     1.2730 ca         1 B26      -0.072000
      8 C30          5.8300     0.8710     5.5040 c3         1 B26      -0.041800
      9 O6           2.1550    -1.4670     2.6290 o          1 B26      -0.607100
     10 Br           7.8420     2.4700     3.5750 br         1 B26      -0.129100
     11 N1           2.5010    -0.8480     0.4660 ns         1 B26      -0.470900
     12 C9           1.4310    -1.6640    -0.1630 c3         1 B26       0.050700
     13 C10          0.0040    -1.1610     0.2350 c          1 B26       0.605100
     14 O4          -0.2000    -0.1010     0.8160 o          1 B26      -0.617100
     15 C8           1.6520    -3.1930     0.0260 c3         1 B26      -0.030100
     16 C5           3.0860    -3.6230    -0.2750 ca         1 B26      -0.154300
     17 C6           3.5680    -3.6060    -1.5960 ca         1 B26      -0.132000
     18 C4           3.9440    -4.0290     0.7630 ca         1 B26      -0.132000
     19 C7           4.8940    -3.9820    -1.8750 ca         1 B26      -0.079000
     20 C3           5.2700    -4.4050     0.4860 ca         1 B26      -0.079000
     21 C2           5.7630    -4.3790    -0.8370 ca         1 B26      -0.037300
     22 C1           7.2140    -4.7810    -1.1410 c3         1 B26      -0.046700
     23 F1           7.7020    -4.0730    -2.1950 f          1 B26      -0.158500
     24 F2           8.0320    -4.4770    -0.0980 f          1 B26      -0.158500
     25 P1           7.4030    -6.6300    -1.5270 p5         1 B26       1.260500
     26 O2           8.8390    -6.9420    -1.8100 o          1 B26      -0.898167
     27 O3           6.9480    -7.4420    -0.3570 o          1 B26      -0.898167
     28 O1           6.5820    -6.9840    -2.7260 o          1 B26      -0.898167
     29 N2          -1.0430    -1.9890    -0.1230 ns         1 B26      -0.494900
     30 C11         -2.4760    -1.7180     0.1350 c3         1 B26       0.039700
     31 C12         -3.2110    -3.0310     0.5280 c          1 B26       0.594100
     32 C13         -3.1480    -1.0610    -1.1020 c3         1 B26      -0.083400
     33 C14         -2.7340     0.4060    -1.3560 c3         1 B26      -0.096400
     34 C15         -3.4790     1.0340    -2.5510 c3         1 B26       0.106000
     35 C16         -3.6560     3.4910    -2.0250 c          1 B26       0.614700
     36 C17         -3.1340     4.8760    -2.3500 ca         1 B26      -0.149600
     37 C18         -3.6530     5.9920    -1.6520 ca         1 B26      -0.047000
     38 C19         -3.1920     7.2920    -1.9260 ca         1 B26      -0.127000
     39 C20         -2.2040     7.4970    -2.9020 ca         1 B26      -0.067000
     40 C21         -1.6790     6.4010    -3.6010 ca         1 B26       0.184000
     41 C22         -2.1360     5.1000    -3.3320 ca         1 B26      -0.054000
     42 O7          -2.7670    -4.1480     0.2940 o          1 B26      -0.602100
     43 O5          -4.5110     3.3050    -1.1700 o          1 B26      -0.607100
     44 I           -0.1540     6.7160    -5.1060 i          1 B26      -0.300000
     45 N4          -4.4190    -2.8470     1.1640 ns         1 B26      -0.495900
     46 C31         -5.3740    -3.9240     1.5090 c3         1 B26       0.016700
     47 C32         -4.9540    -4.6650     2.8130 c          1 B26       0.594100
     48 C33         -6.8220    -3.3730     1.6200 c3         1 B26       0.091000
     49 C34         -6.9160    -1.2710     0.2150 c          1 B26       0.597100
     50 C35         -7.4490    -0.6760    -1.0920 c3         1 B26      -0.103100
     51 C36         -8.5310     0.3640    -0.8210 ca         1 B26      -0.085300
     52 C37         -9.8800    -0.0280    -0.7140 ca         1 B26      -0.145000
     53 C38        -10.8820     0.9350    -0.4580 ca         1 B26       0.037100
     54 C39        -10.5200     2.2900    -0.3110 ca         1 B26       0.119100
     55 C40         -9.1770     2.6820    -0.4160 ca         1 B26      -0.108000
     56 C41         -8.1830     1.7210    -0.6700 ca         1 B26      -0.067000
     57 C42        -12.6900    -0.7540    -0.4750 c3         1 B26       0.159900
     58 O8          -4.0450    -4.3050     3.5440 o          1 B26      -0.565100
     59 O9          -6.2190    -0.6340     0.9930 o          1 B26      -0.586100
     60 O10        -12.2220     0.6020    -0.3430 os         1 B26      -0.371100
     61 O11        -11.4850     3.2230    -0.0640 oh         1 B26      -0.536100
     62 N5          -5.6770    -5.7640     3.1370 nt         1 B26      -0.611000
     63 H26          3.7620    -0.4470     4.3300 ha         1 B26       0.129000
     64 H27          6.5990     1.8710     0.9610 ha         1 B26       0.143000
     65 H28          4.6490     0.5860     0.2070 ha         1 B26       0.150000
     66 H29          5.8160     1.9090     5.8590 hc         1 B26       0.041700
     67 H30          5.1110     0.3090     6.1110 hc         1 B26       0.041700
     68 H31          6.8250     0.4570     5.7080 hc         1 B26       0.041700
     69 H1           3.0900    -0.2950    -0.1400 hn         1 B26       0.329500
     70 H14          1.4990    -1.4770    -1.2420 h1         1 B26       0.064700
     71 H12          1.3750    -3.4770     1.0490 hc         1 B26       0.049700
     72 H13          0.9700    -3.7450    -0.6330 hc         1 B26       0.049700
     73 H10          2.9170    -3.2980    -2.4110 ha         1 B26       0.079500
     74 H9           3.5890    -4.0490     1.7910 ha         1 B26       0.079500
     75 H11          5.2440    -3.9640    -2.9050 ha         1 B26       0.135500
     76 H8           5.9150    -4.7170     1.3040 ha         1 B26       0.135500
     77 H2          -0.8030    -2.8630    -0.5760 hn         1 B26       0.344500
     78 H3          -2.4280     2.6660    -3.4420 hn         1 B26       0.319500
     79 H15         -2.5700    -1.0430     0.9970 h1         1 B26       0.100700
     80 H16         -2.9330    -1.6640    -1.9940 hc         1 B26       0.037700
     81 H17         -4.2360    -1.0850    -0.9710 hc         1 B26       0.037700
     82 H18         -2.9350     0.9970    -0.4530 hc         1 B26       0.069200
     83 H19         -1.6560     0.4600    -1.5440 hc         1 B26       0.069200
     84 H20         -4.5630     0.9580    -2.3940 h1         1 B26       0.042200
     85 H21         -3.2310     0.4820    -3.4670 h1         1 B26       0.042200
     86 H22         -4.4200     5.8560    -0.8910 ha         1 B26       0.136000
     87 H23         -3.6010     8.1400    -1.3810 ha         1 B26       0.116000
     88 H24         -1.8450     8.5010    -3.1160 ha         1 B26       0.124000
     89 H25         -1.7000     4.2820    -3.8980 ha         1 B26       0.133000
     90 H4          -4.7290    -1.8860     1.2920 hn         1 B26       0.352500
     91 H7          -7.8250    -3.0450    -0.2530 hn         1 B26       0.309500
     92 H32         -5.3580    -4.6660     0.7000 h1         1 B26       0.061700
     93 H33         -6.9000    -2.7370     2.5130 h1         1 B26       0.067700
     94 H34         -7.5240    -4.2080     1.7510 h1         1 B26       0.067700
     95 H35         -6.6130    -0.2030    -1.6190 hc         1 B26       0.059200
     96 H36         -7.8550    -1.4720    -1.7270 hc         1 B26       0.059200
     97 H37        -10.1310    -1.0790    -0.8290 ha         1 B26       0.106000
     98 H38         -8.9050     3.7280    -0.3000 ha         1 B26       0.150000
     99 H39         -7.1430     2.0320    -0.7460 ha         1 B26       0.134000
    100 H40        -13.7790    -0.7940    -0.3490 h1         1 B26       0.037367
    101 H41        -12.4480    -1.1560    -1.4670 h1         1 B26       0.037367
    102 H42        -12.2360    -1.3990     0.2880 h1         1 B26       0.037367
    103 H45        -12.3380     2.7350    -0.0310 ho         1 B26       0.474000
    104 H5          -6.4220    -6.0820     2.5360 hn         1 B26       0.310500
    105 H6          -5.4420    -6.2760     3.9760 hn         1 B26       0.310500
    106 N6          -7.2470    -2.5910     0.4460 ns         1 B26      -0.514900
    107 N3          -3.1240     2.4410    -2.7440 ns         1 B26      -0.499900
@<TRIPOS>BOND
     1     1     2 1   
     2     1     9 2   
     3     1    11 1   
     4     2     3 ar  
     5     2     7 ar  
     6     3     4 ar  
     7     3    63 1   
     8     4     5 ar  
     9     4     8 1   
    10     5     6 ar  
    11     5    10 1   
    12     6     7 ar  
    13     6    64 1   
    14     7    65 1   
    15     8    66 1   
    16     8    67 1   
    17     8    68 1   
    18    11    12 1   
    19    11    69 1   
    20    12    13 1   
    21    12    15 1   
    22    12    70 1   
    23    13    14 2   
    24    13    29 1   
    25    15    16 1   
    26    15    71 1   
    27    15    72 1   
    28    16    17 ar  
    29    16    18 ar  
    30    17    19 ar  
    31    17    73 1   
    32    18    20 ar  
    33    18    74 1   
    34    19    21 ar  
    35    19    75 1   
    36    20    21 ar  
    37    20    76 1   
    38    21    22 1   
    39    22    23 1   
    40    22    24 1   
    41    22    25 1   
    42    25    26 1   
    43    25    27 1   
    44    25    28 1   
    45    29    30 1   
    46    29    77 1   
    47    30    31 1   
    48    30    32 1   
    49    30    79 1   
    50    31    42 2   
    51    31    45 1   
    52    32    33 1   
    53    32    80 1   
    54    32    81 1   
    55    33    34 1   
    56    33    82 1   
    57    33    83 1   
    58    34    84 1   
    59    34    85 1   
    60    34   107 1   
    61    35    36 1   
    62    35    43 2   
    63    35   107 1   
    64    36    37 ar  
    65    36    41 ar  
    66    37    38 ar  
    67    37    86 1   
    68    38    39 ar  
    69    38    87 1   
    70    39    40 ar  
    71    39    88 1   
    72    40    41 ar  
    73    40    44 1   
    74    41    89 1   
    75    45    46 1   
    76    45    90 1   
    77    46    47 1   
    78    46    48 1   
    79    46    92 1   
    80    47    58 2   
    81    47    62 1   
    82    48    93 1   
    83    48    94 1   
    84    48   106 1   
    85    49    50 1   
    86    49    59 2   
    87    49   106 1   
    88    50    51 1   
    89    50    95 1   
    90    50    96 1   
    91    51    52 ar  
    92    51    56 ar  
    93    52    53 ar  
    94    52    97 1   
    95    53    54 ar  
    96    53    60 1   
    97    54    55 ar  
    98    54    61 1   
    99    55    56 ar  
   100    55    98 1   
   101    56    99 1   
   102    57    60 1   
   103    57   100 1   
   104    57   101 1   
   105    57   102 1   
   106    61   103 1   
   107    62   104 1   
   108    62   105 1   
   109    78   107 1   
   110    91   106 1   
@<TRIPOS>SUBSTRUCTURE
     1 B26         1 TEMP              0 ****  ****    0 ROOT
