@<TRIPOS>MOLECULE
B27
   18    17     1     0     0
SMALL
No Charge or Current Charge


@<TRIPOS>ATOM
      1 N           -0.0050     1.2730     0.9800 n8         1 B27      -1.008200
      2 CA           0.1140     0.3590    -0.1930 c3         1 B27       0.151500
      3 CB           1.5400    -0.2850    -0.2680 c3         1 B27       0.124300
      4 CG2          2.6590     0.7440    -0.5440 c3         1 B27      -0.129100
      5 OG1          1.8450    -0.9650     0.9630 oh         1 B27      -0.653000
      6 CX          -1.0010    -0.7260    -0.1810 c3         1 B27       0.082600
      7 HN           0.3800     0.7640     1.7840 hn         1 B27       0.404500
      8 HA          -0.0340     0.9540    -1.1070 h1         1 B27       0.074700
      9 HB           1.5400    -1.0010    -1.1040 h1         1 B27       0.077700
     10 HOG1         2.7450    -1.3480     0.8690 ho         1 B27       0.435000
     11 HG2          3.6250     0.2400    -0.6680 hc         1 B27       0.044033
     12 HG2A         2.4510     1.3000    -1.4660 hc         1 B27       0.044033
     13 HG2B         2.7550     1.4650     0.2780 hc         1 B27       0.044033
     14 HX          -0.8170    -1.4320    -1.0010 h1         1 B27       0.063700
     15 HXA         -0.9510    -1.2920     0.7590 h1         1 B27       0.063700
     16 HNA          0.6630     2.0420     0.8620 hn         1 B27       0.404500
     17 HSG         -3.3510    -1.2820    -0.3090 hs         1 B27       0.184800
     18 SG          -2.7340    -0.0780    -0.3860 sh         1 B27      -0.407800
@<TRIPOS>BOND
     1     1     2 1   
     2     1     7 1   
     3     1    16 1   
     4     2     3 1   
     5     2     6 1   
     6     2     8 1   
     7     3     4 1   
     8     3     5 1   
     9     3     9 1   
    10     4    11 1   
    11     4    12 1   
    12     4    13 1   
    13     5    10 1   
    14     6    14 1   
    15     6    15 1   
    16     6    18 1   
    17    17    18 1   
@<TRIPOS>SUBSTRUCTURE
     1 B27         1 TEMP              0 ****  ****    0 ROOT
