@<TRIPOS>MOLECULE
B27
   18    17     1     0     0
SMALL
abcg2


@<TRIPOS>ATOM
      1 N            0.0810     1.1560     0.9780 n8         1 B27      -1.008200
      2 CA           0.1930     0.2990    -0.1880 c3         1 B27       0.151500
      3 CB           1.5670    -0.3740    -0.3830 c3         1 B27       0.124300
      4 CG2          2.6530     0.6430    -0.7010 c3         1 B27      -0.129100
      5 OG1          1.9170    -1.1820     0.7250 oh         1 B27      -0.653000
      6 CX          -0.9110    -0.7470    -0.1440 c3         1 B27       0.082600
      7 HN           0.2190     0.6350     1.8360 hn         1 B27       0.404500
      8 HA           0.0210     0.9280    -1.0680 h1         1 B27       0.074700
      9 HB           1.4830    -1.0620    -1.2300 h1         1 B27       0.077700
     10 HOG1         2.1110    -0.6020     1.4680 ho         1 B27       0.435000
     11 HG2          3.6140     0.1510    -0.8480 hc         1 B27       0.044033
     12 HG2A         2.4150     1.1920    -1.6120 hc         1 B27       0.044033
     13 HG2B         2.7740     1.3730     0.1050 hc         1 B27       0.044033
     14 HX          -0.9480    -1.2880    -1.0890 h1         1 B27       0.063700
     15 HXA         -0.7300    -1.4690     0.6530 h1         1 B27       0.063700
     16 HNA          0.7640     1.9020     0.9620 hn         1 B27       0.404500
     17 HSG         -3.2860    -0.9070    -0.3290 hs         1 B27       0.184800
     18 SG          -2.5130     0.0830     0.1330 sh         1 B27      -0.407800
@<TRIPOS>BOND
     1     1     2 1   
     2     1     7 1   
     3     1    16 1   
     4     2     3 1   
     5     2     6 1   
     6     2     8 1   
     7     3     4 1   
     8     3     5 1   
     9     3     9 1   
    10     4    11 1   
    11     4    12 1   
    12     4    13 1   
    13     5    10 1   
    14     6    14 1   
    15     6    15 1   
    16     6    18 1   
    17    17    18 1   
@<TRIPOS>SUBSTRUCTURE
     1 B27         1 TEMP              0 ****  ****    0 ROOT
