@<TRIPOS>MOLECULE
B28
   45    47     1     0     0
SMALL
bcc


@<TRIPOS>ATOM
      1 CAM          8.6330    -3.6350     3.1020 ca         1 B28      -0.147000
      2 CAI          9.7070    -4.1800     3.7900 ca         1 B28      -0.144000
      3 CAH         10.9810    -3.6490     3.6350 ca         1 B28      -0.295000
      4 CAJ         11.1700    -2.5680     2.7840 ca         1 B28      -0.144000
      5 CAN         10.0950    -2.0220     2.0980 ca         1 B28      -0.147000
      6 CAW          8.8090    -2.5460     2.2450 cp         1 B28      -0.074000
      7 CAX          7.6650    -1.9580     1.5210 cp         1 B28      -0.077000
      8 CAQ          7.8130    -1.4410     0.2330 ca         1 B28      -0.164000
      9 CAS          6.7400    -0.8790    -0.4410 ca         1 B28      -0.115000
     10 CAP          6.3990    -1.8910     2.1070 ca         1 B28      -0.164000
     11 CAR          5.3250    -1.3300     1.4370 ca         1 B28      -0.115000
     12 CAY          5.4770    -0.8130     0.1470 cp         1 B28      -0.041000
     13 CAZ          4.3210    -0.1990    -0.5340 cp         1 B28      -0.059000
     14 CAT          3.0490    -0.7310    -0.3310 ca         1 B28      -0.076000
     15 CAO          4.4620     0.9460    -1.3210 ca         1 B28      -0.189000
     16 CAK          3.3370     1.5480    -1.8640 ca         1 B28      -0.182000
     17 CAL          2.0730     1.0240    -1.6150 ca         1 B28      -0.152000
     18 CAV          1.9070    -0.1280    -0.8490 ca         1 B28       0.004700
     19 CAU          0.5340    -0.6680    -0.5650 c3         1 B28      -0.051100
     20 CBA          0.0270    -0.4170     0.8770 c3         1 B28       0.063400
     21 PBB          0.8760    -1.5690     2.1170 p5         1 B28       1.092200
     22 OAD          1.3940    -2.8070     1.3660 o          1 B28      -0.872333
     23 OAE          2.0180    -0.6180     2.6050 o          1 B28      -0.872333
     24 OAA         -0.0720    -1.9270     3.2610 o          1 B28      -0.872333
     25 PBC         -1.8390    -0.5360     0.8500 p5         1 B28       1.092200
     26 OAF         -2.2910     0.4110    -0.2860 o          1 B28      -0.872333
     27 OAG         -2.1380    -2.0090     0.5250 o          1 B28      -0.872333
     28 OAB         -2.3680    -0.0620     2.2100 o          1 B28      -0.872333
     29 OAC          0.3970     0.9040     1.2850 oh         1 B28      -0.641800
     30 HAM          7.6510    -4.0760     3.2210 ha         1 B28       0.110000
     31 HAI          9.5500    -5.0280     4.4440 ha         1 B28       0.072000
     32 HAH         11.8180    -4.0720     4.1750 ha         1 B28       0.068000
     33 HAJ         12.1570    -2.1400     2.6600 ha         1 B28       0.072000
     34 HAN         10.2560    -1.1650     1.4560 ha         1 B28       0.110000
     35 HAQ          8.7730    -1.4980    -0.2660 ha         1 B28       0.098000
     36 HAS          6.8900    -0.5080    -1.4470 ha         1 B28       0.156500
     37 HAP          6.2520    -2.2530     3.1170 ha         1 B28       0.098000
     38 HAR          4.3580    -1.2520     1.9270 ha         1 B28       0.156500
     39 HAT          2.9260    -1.6360     0.2500 ha         1 B28       0.211000
     40 HAO          5.4400     1.3840    -1.4820 ha         1 B28       0.074000
     41 HAK          3.4430     2.4420    -2.4660 ha         1 B28       0.064000
     42 HAL          1.2000     1.5170    -2.0280 ha         1 B28       0.117000
     43 HAU1         0.4990    -1.7400    -0.7570 hc         1 B28       0.062200
     44 HAU2        -0.1620    -0.1900    -1.2590 hc         1 B28       0.062200
     45 HOAC         1.2040     0.7090     1.8140 ho         1 B28       0.429000
@<TRIPOS>BOND
     1     1     2 ar  
     2     1     6 ar  
     3     1    30 1   
     4     2     3 ar  
     5     2    31 1   
     6     3     4 ar  
     7     3    32 1   
     8     4     5 ar  
     9     4    33 1   
    10     5     6 ar  
    11     5    34 1   
    12     6     7 1   
    13     7     8 ar  
    14     7    10 ar  
    15     8     9 ar  
    16     8    35 1   
    17     9    12 ar  
    18     9    36 1   
    19    10    11 ar  
    20    10    37 1   
    21    11    12 ar  
    22    11    38 1   
    23    12    13 1   
    24    13    14 ar  
    25    13    15 ar  
    26    14    18 ar  
    27    14    39 1   
    28    15    16 ar  
    29    15    40 1   
    30    16    17 ar  
    31    16    41 1   
    32    17    18 ar  
    33    17    42 1   
    34    18    19 1   
    35    19    20 1   
    36    19    43 1   
    37    19    44 1   
    38    20    21 1   
    39    20    25 1   
    40    20    29 1   
    41    21    22 1   
    42    21    23 1   
    43    21    24 1   
    44    25    26 1   
    45    25    27 1   
    46    25    28 1   
    47    29    45 1   
@<TRIPOS>SUBSTRUCTURE
     1 B28         1 TEMP              0 ****  ****    0 ROOT
