@<TRIPOS>MOLECULE
B28
   45    47     1     0     0
SMALL
No Charge or Current Charge


@<TRIPOS>ATOM
      1 CAM          8.9230    -3.8910     2.9510 ca         1 B28      -0.129000
      2 CAI         10.0460    -4.5120     3.5260 ca         1 B28      -0.126000
      3 CAH         11.3220    -3.9600     3.3460 ca         1 B28      -0.277000
      4 CAJ         11.4770    -2.7880     2.5910 ca         1 B28      -0.126000
      5 CAN         10.3550    -2.1690     2.0150 ca         1 B28      -0.129000
      6 CAW          9.0510    -2.7060     2.1810 cp         1 B28      -0.074000
      7 CAX          7.8530    -2.0440     1.5660 cp         1 B28      -0.077000
      8 CAQ          7.9430    -1.3690     0.3240 ca         1 B28      -0.146000
      9 CAS          6.8210    -0.7490    -0.2520 ca         1 B28      -0.097000
     10 CAP          6.5890    -2.0700     2.2050 ca         1 B28      -0.146000
     11 CAR          5.4670    -1.4510     1.6290 ca         1 B28      -0.097000
     12 CAY          5.5570    -0.7760     0.3870 cp         1 B28      -0.041000
     13 CAZ          4.3610    -0.1160    -0.2300 cp         1 B28      -0.059000
     14 CAT          3.0630    -0.6750    -0.0940 ca         1 B28      -0.058000
     15 CAO          4.4890     1.0820    -0.9760 ca         1 B28      -0.171000
     16 CAK          3.3700     1.6940    -1.5590 ca         1 B28      -0.164000
     17 CAL          2.0970     1.1220    -1.4110 ca         1 B28      -0.134000
     18 CAV          1.9300    -0.0640    -0.6690 ca         1 B28       0.004700
     19 CAU          0.5470    -0.7150    -0.5550 c3         1 B28      -0.051100
     20 CBA         -0.3810    -0.1840     0.5920 c3         1 B28      -0.229000
     21 PBB          0.2940    -0.6340     2.2890 p5         1 B28       1.250000
     22 OAD          1.0180    -1.9400     2.2590 o          1 B28      -0.872333
     23 OAE          1.2910     0.4380     2.5950 o          1 B28      -0.872333
     24 OAA         -0.7280    -0.6270     3.3760 o          1 B28      -0.872333
     25 PBC         -1.9870    -1.1720     0.5530 p5         1 B28       1.250000
     26 OAF         -2.4890    -1.1450    -0.8560 o          1 B28      -0.872333
     27 OAG         -1.8020    -2.5990     0.9520 o          1 B28      -0.872333
     28 OAB         -3.0390    -0.5220     1.3950 o          1 B28      -0.872333
     29 OAC         -0.5110     1.2870     0.4170 oh         1 B28      -0.704000
     30 HAM          7.9450    -4.3440     3.0930 ha         1 B28       0.092000
     31 HAI          9.9230    -5.4210     4.1090 ha         1 B28       0.054000
     32 HAH         12.1900    -4.4390     3.7920 ha         1 B28       0.050000
     33 HAJ         12.4650    -2.3570     2.4520 ha         1 B28       0.054000
     34 HAN         10.4970    -1.2550     1.4440 ha         1 B28       0.092000
     35 HAQ          8.8890    -1.3370    -0.2100 ha         1 B28       0.080000
     36 HAS          6.9300    -0.2540    -1.2150 ha         1 B28       0.138500
     37 HAP          6.4770    -2.5620     3.1680 ha         1 B28       0.080000
     38 HAR          4.5190    -1.4790     2.1630 ha         1 B28       0.138500
     39 HAT          2.9370    -1.6050     0.4530 ha         1 B28       0.193000
     40 HAO          5.4630     1.5490    -1.0940 ha         1 B28       0.056000
     41 HAK          3.4890     2.6120    -2.1290 ha         1 B28       0.046000
     42 HAL          1.2370     1.5970    -1.8760 ha         1 B28       0.099000
     43 HAU1         0.6610    -1.8010    -0.4470 hc         1 B28       0.062200
     44 HAU2         0.0280    -0.5830    -1.5120 hc         1 B28       0.062200
     45 HOAC         0.1730     1.6790     1.0100 ho         1 B28       0.468000
@<TRIPOS>BOND
     1     1     2 ar  
     2     1     6 ar  
     3     1    30 1   
     4     2     3 ar  
     5     2    31 1   
     6     3     4 ar  
     7     3    32 1   
     8     4     5 ar  
     9     4    33 1   
    10     5     6 ar  
    11     5    34 1   
    12     6     7 1   
    13     7     8 ar  
    14     7    10 ar  
    15     8     9 ar  
    16     8    35 1   
    17     9    12 ar  
    18     9    36 1   
    19    10    11 ar  
    20    10    37 1   
    21    11    12 ar  
    22    11    38 1   
    23    12    13 1   
    24    13    14 ar  
    25    13    15 ar  
    26    14    18 ar  
    27    14    39 1   
    28    15    16 ar  
    29    15    40 1   
    30    16    17 ar  
    31    16    41 1   
    32    17    18 ar  
    33    17    42 1   
    34    18    19 1   
    35    19    20 1   
    36    19    43 1   
    37    19    44 1   
    38    20    21 1   
    39    20    25 1   
    40    20    29 1   
    41    21    22 1   
    42    21    23 1   
    43    21    24 1   
    44    25    26 1   
    45    25    27 1   
    46    25    28 1   
    47    29    45 1   
@<TRIPOS>SUBSTRUCTURE
     1 B28         1 TEMP              0 ****  ****    0 ROOT
