@<TRIPOS>MOLECULE
B29
   44    47     1     0     0
SMALL
No Charge or Current Charge


@<TRIPOS>ATOM
      1 CAY          4.8120    -0.3530     0.1010 cp         1 B29      -0.138000
      2 CAP          5.2680    -1.3400     0.9940 ca         1 B29      -0.170000
      3 CAI          6.6270    -1.7180     0.9250 ca         1 B29      -0.121000
      4 CAH          7.5010    -1.1180    -0.0160 ca         1 B29      -0.248000
      5 CAO          7.0310    -0.1270    -0.9070 ca         1 B29      -0.162000
      6 CAX          5.6810     0.2310    -0.8200 ca         1 B29       0.103100
      7 OAT          5.0010     1.1640    -1.5760 os         1 B29      -0.180200
      8 CBA          3.6820     1.1900    -1.1580 ca         1 B29       0.076100
      9 CAZ          3.5080     0.2780    -0.1160 cp         1 B29      -0.105000
     10 CAQ          2.2560     0.1300     0.5030 ca         1 B29      -0.169000
     11 CAK          1.1920     0.9320     0.0390 ca         1 B29      -0.118000
     12 CAN          1.3860     1.8570    -1.0200 ca         1 B29      -0.149000
     13 CAW          2.6510     2.0170    -1.6600 cp         1 B29       0.020000
     14 CAV          2.8480     2.9930    -2.7810 cp         1 B29      -0.056000
     15 CAR          2.2070     4.2590    -2.7610 ca         1 B29      -0.058000
     16 CAM          3.6550     2.6770    -3.9010 ca         1 B29      -0.138000
     17 CAJ          3.8160     3.5890    -4.9560 ca         1 B29      -0.169000
     18 CAL          3.1730     4.8360    -4.9130 ca         1 B29      -0.114000
     19 CAU          2.3690     5.1860    -3.8110 ca         1 B29      -0.006300
     20 CAS          1.6270     6.5270    -3.7930 c3         1 B29      -0.059100
     21 CBB          2.4410     7.7660    -3.2820 c3         1 B29      -0.183000
     22 PBC          2.8370     7.6240    -1.4460 p5         1 B29       1.231000
     23 OAD          4.0720     6.7840    -1.3900 o          1 B29      -0.855000
     24 OAE          1.7520     6.9050    -0.7120 o          1 B29      -0.855000
     25 OAA          3.1390     8.9280    -0.7860 o          1 B29      -0.855000
     26 PBD          1.3050     9.2730    -3.3100 p5         1 B29       1.231000
     27 OAF          0.6760     9.3300    -4.6660 o          1 B29      -0.855000
     28 OAG          0.2140     9.1920    -2.2930 o          1 B29      -0.855000
     29 OAB          2.0870    10.5370    -3.1440 o          1 B29      -0.855000
     30 OAC          3.6730     7.8620    -4.1070 oh         1 B29      -0.707000
     31 HAP          4.5940    -1.7970     1.7140 ha         1 B29       0.068000
     32 HAI          7.0070    -2.4790     1.6020 ha         1 B29       0.043000
     33 HAH          8.5440    -1.4240    -0.0530 ha         1 B29       0.051000
     34 HAO          7.6900     0.3430    -1.6340 ha         1 B29       0.091000
     35 HAQ          2.1130    -0.5770     1.3160 ha         1 B29       0.066000
     36 HAK          0.2110     0.8400     0.4970 ha         1 B29       0.065000
     37 HAN          0.5390     2.4490    -1.3560 ha         1 B29       0.114000
     38 HAR          1.5820     4.5260    -1.9130 ha         1 B29       0.190000
     39 HAM          4.1450     1.7090    -3.9640 ha         1 B29       0.071000
     40 HAJ          4.4330     3.3260    -5.8110 ha         1 B29       0.052000
     41 HAL          3.2940     5.5310    -5.7400 ha         1 B29       0.103000
     42 HAS1         0.7120     6.4320    -3.1960 hc         1 B29       0.063200
     43 HAS2         1.2770     6.7370    -4.8110 hc         1 B29       0.063200
     44 HOAC         4.3700     7.3950    -3.5850 ho         1 B29       0.480000
@<TRIPOS>BOND
     1     1     2 ar  
     2     1     6 ar  
     3     1     9 1   
     4     2     3 ar  
     5     2    31 1   
     6     3     4 ar  
     7     3    32 1   
     8     4     5 ar  
     9     4    33 1   
    10     5     6 ar  
    11     5    34 1   
    12     6     7 1   
    13     7     8 1   
    14     8     9 ar  
    15     8    13 ar  
    16     9    10 ar  
    17    10    11 ar  
    18    10    35 1   
    19    11    12 ar  
    20    11    36 1   
    21    12    13 ar  
    22    12    37 1   
    23    13    14 1   
    24    14    15 ar  
    25    14    16 ar  
    26    15    19 ar  
    27    15    38 1   
    28    16    17 ar  
    29    16    39 1   
    30    17    18 ar  
    31    17    40 1   
    32    18    19 ar  
    33    18    41 1   
    34    19    20 1   
    35    20    21 1   
    36    20    42 1   
    37    20    43 1   
    38    21    22 1   
    39    21    26 1   
    40    21    30 1   
    41    22    23 1   
    42    22    24 1   
    43    22    25 1   
    44    26    27 1   
    45    26    28 1   
    46    26    29 1   
    47    30    44 1   
@<TRIPOS>SUBSTRUCTURE
     1 B29         1 TEMP              0 ****  ****    0 ROOT
