@<TRIPOS>MOLECULE
B29
   44    47     1     0     0
SMALL
bcc


@<TRIPOS>ATOM
      1 CAY          4.8320    -0.1980     0.0710 cp         1 B29      -0.139000
      2 CAP          5.3860    -1.1150     0.9580 ca         1 B29      -0.180000
      3 CAI          6.7240    -1.4470     0.8100 ca         1 B29      -0.142000
      4 CAH          7.4990    -0.8760    -0.2040 ca         1 B29      -0.267000
      5 CAO          6.9640     0.0420    -1.0970 ca         1 B29      -0.172000
      6 CAX          5.6290     0.3580    -0.9310 ca         1 B29       0.098100
      7 OAT          4.9250     1.2300    -1.6970 os         1 B29      -0.179200
      8 CBA          3.6550     1.2500    -1.2060 ca         1 B29       0.084100
      9 CAZ          3.5270     0.3940    -0.1090 cp         1 B29      -0.103000
     10 CAQ          2.3080     0.2940     0.5530 ca         1 B29      -0.199000
     11 CAK          1.2560     1.0660     0.0880 ca         1 B29      -0.131000
     12 CAN          1.4140     1.9150    -1.0070 ca         1 B29      -0.172000
     13 CAW          2.6200     2.0380    -1.6990 cp         1 B29       0.015000
     14 CAV          2.7700     2.9650    -2.8380 cp         1 B29      -0.054000
     15 CAR          2.1970     4.2330    -2.7620 ca         1 B29      -0.073000
     16 CAM          3.4650     2.5980    -3.9930 ca         1 B29      -0.162000
     17 CAJ          3.5730     3.4980    -5.0410 ca         1 B29      -0.185000
     18 CAL          2.9910     4.7570    -4.9490 ca         1 B29      -0.137000
     19 CAU          2.2780     5.1410    -3.8150 ca         1 B29      -0.008300
     20 CAS          1.6390     6.4980    -3.7460 c3         1 B29      -0.058100
     21 CBB          2.4660     7.5800    -3.0130 c3         1 B29       0.112400
     22 PBC          2.4590     7.2830    -1.1500 p5         1 B29       1.071700
     23 OAD          3.7850     6.4670    -1.0330 o          1 B29      -0.854500
     24 OAE          1.2080     6.4690    -0.7730 o          1 B29      -0.854500
     25 OAA          2.5440     8.6070    -0.3890 o          1 B29      -0.854500
     26 PBD          1.8260     9.2520    -3.5550 p5         1 B29       1.071700
     27 OAF          1.8250     9.2050    -5.1000 o          1 B29      -0.854500
     28 OAG          0.4020     9.3380    -2.9810 o          1 B29      -0.854500
     29 OAB          2.7920    10.3230    -3.0340 o          1 B29      -0.854500
     30 OAC          3.8380     7.4630    -3.3990 oh         1 B29      -0.643800
     31 HAP          4.7900    -1.5600     1.7440 ha         1 B29       0.087000
     32 HAI          7.1780    -2.1580     1.4870 ha         1 B29       0.062000
     33 HAH          8.5400    -1.1540    -0.2960 ha         1 B29       0.069000
     34 HAO          7.5630     0.4870    -1.8810 ha         1 B29       0.110000
     35 HAQ          2.1870    -0.3610     1.4070 ha         1 B29       0.083000
     36 HAK          0.2920     1.0110     0.5770 ha         1 B29       0.082000
     37 HAN          0.5640     2.4940    -1.3460 ha         1 B29       0.131000
     38 HAR          1.6810     4.5510    -1.8640 ha         1 B29       0.208000
     39 HAM          3.8990     1.6110    -4.0880 ha         1 B29       0.088000
     40 HAJ          4.1080     3.2130    -5.9390 ha         1 B29       0.069000
     41 HAL          3.0760     5.4470    -5.7800 ha         1 B29       0.120000
     42 HAS1         0.6610     6.4300    -3.2690 hc         1 B29       0.063200
     43 HAS2         1.4740     6.8420    -4.7710 hc         1 B29       0.063200
     44 HOAC         4.1880     6.9420    -2.6370 ho         1 B29       0.442000
@<TRIPOS>BOND
     1     1     2 ar  
     2     1     6 ar  
     3     1     9 1   
     4     2     3 ar  
     5     2    31 1   
     6     3     4 ar  
     7     3    32 1   
     8     4     5 ar  
     9     4    33 1   
    10     5     6 ar  
    11     5    34 1   
    12     6     7 1   
    13     7     8 1   
    14     8     9 ar  
    15     8    13 ar  
    16     9    10 ar  
    17    10    11 ar  
    18    10    35 1   
    19    11    12 ar  
    20    11    36 1   
    21    12    13 ar  
    22    12    37 1   
    23    13    14 1   
    24    14    15 ar  
    25    14    16 ar  
    26    15    19 ar  
    27    15    38 1   
    28    16    17 ar  
    29    16    39 1   
    30    17    18 ar  
    31    17    40 1   
    32    18    19 ar  
    33    18    41 1   
    34    19    20 1   
    35    20    21 1   
    36    20    42 1   
    37    20    43 1   
    38    21    22 1   
    39    21    26 1   
    40    21    30 1   
    41    22    23 1   
    42    22    24 1   
    43    22    25 1   
    44    26    27 1   
    45    26    28 1   
    46    26    29 1   
    47    30    44 1   
@<TRIPOS>SUBSTRUCTURE
     1 B29         1 TEMP              0 ****  ****    0 ROOT
