@<TRIPOS>MOLECULE
B2C
   39    40     1     0     0
SMALL
No Charge or Current Charge


@<TRIPOS>ATOM
      1 CB1          3.9510     2.4640     0.9820 c3         1 B2C       0.120300
      2 CB2         -0.3730    -1.1580     0.1960 ce         1 B2C      -0.120200
      3 CG1          5.1560     3.4160     0.8160 c3         1 B2C      -0.129100
      4 OG1          2.8480     3.2190     1.5080 oh         1 B2C      -0.648000
      5 CG2         -1.6420    -0.4250    -0.1010 ca         1 B2C      -0.062800
      6 CD1         -2.8200    -0.7960     0.5780 ca         1 B2C      -0.045000
      7 CD2         -1.7020     0.6050    -1.0640 ca         1 B2C      -0.028000
      8 CE1         -4.0350    -0.1370     0.3150 ca         1 B2C      -0.121900
      9 CE2         -2.9170     1.2630    -1.3270 ca         1 B2C      -0.161000
     10 CZ          -4.0810     0.8960    -0.6380 ca         1 B2C       0.160100
     11 OH          -5.2530     1.5400    -0.9020 oh         1 B2C      -0.535100
     12 Br          -5.6130    -0.6660     1.2700 br         1 B2C      -0.130100
     13 C1           2.6460     0.5190    -0.0590 cc         1 B2C       0.535900
     14 C2           2.0930    -1.5840     0.5530 c          1 B2C       0.540200
     15 C3           5.2260    -1.7310    -0.6460 c          1 B2C       0.705000
     16 CA1          3.5520     1.7330    -0.3440 c3         1 B2C       0.115200
     17 CA2          0.9430    -0.7400     0.1720 cd         1 B2C       0.051400
     18 N1           3.0200     2.6990    -1.3850 n8         1 B2C      -0.986200
     19 N2           1.3090     0.5520    -0.1960 nd         1 B2C      -0.663300
     20 N3           3.1340    -0.7060     0.3800 n          1 B2C      -0.302300
     21 O2           2.1370    -2.7520     0.9240 o          1 B2C      -0.514000
     22 O3           5.2850    -1.0680    -1.6710 o          1 B2C      -0.711500
     23 H1           4.2460     1.6940     1.7110 h1         1 B2C       0.091700
     24 H2          -0.5140    -2.1840     0.5410 ha         1 B2C       0.185000
     25 H3           5.4340     3.8550     1.7820 hc         1 B2C       0.038033
     26 H4           6.0270     2.8690     0.4350 hc         1 B2C       0.038033
     27 H5           4.9340     4.2340     0.1210 hc         1 B2C       0.038033
     28 H6           2.7930     4.0520     0.9930 ho         1 B2C       0.430000
     29 H8          -2.7930    -1.5940     1.3170 ha         1 B2C       0.125000
     30 H9          -0.8140     0.8910    -1.6220 ha         1 B2C       0.160000
     31 H10         -2.9540     2.0550    -2.0700 ha         1 B2C       0.124000
     32 H12          4.4830     1.3180    -0.7550 h1         1 B2C       0.114700
     33 H13          4.6150    -1.8050     1.4230 h1         1 B2C       0.045700
     34 H14          5.1470    -0.2130     0.8740 h1         1 B2C       0.045700
     35 H15          2.0800     2.9970    -1.0960 hn         1 B2C       0.398500
     36 H16          3.5790     3.5590    -1.3790 hn         1 B2C       0.398500
     37 O1           5.6400    -2.8770    -0.5550 o          1 B2C      -0.711500
     38 H7          -5.9430     1.1440    -0.3270 ho         1 B2C       0.473000
     39 CA3          4.5580    -1.0920     0.5900 c3         1 B2C      -0.065000
@<TRIPOS>BOND
     1     1     3 1   
     2     1     4 1   
     3     1    16 1   
     4     1    23 1   
     5     2     5 1   
     6     2    17 2   
     7     2    24 1   
     8     3    25 1   
     9     3    26 1   
    10     3    27 1   
    11     4    28 1   
    12     5     6 ar  
    13     5     7 ar  
    14     6     8 ar  
    15     6    29 1   
    16     7     9 ar  
    17     7    30 1   
    18     8    10 ar  
    19     8    12 1   
    20     9    10 ar  
    21     9    31 1   
    22    10    11 1   
    23    11    38 1   
    24    13    16 1   
    25    13    19 2   
    26    13    20 1   
    27    14    17 1   
    28    14    20 1   
    29    14    21 2   
    30    15    22 1   
    31    15    37 1   
    32    15    39 1   
    33    16    18 1   
    34    16    32 1   
    35    17    19 1   
    36    18    35 1   
    37    18    36 1   
    38    20    39 1   
    39    33    39 1   
    40    34    39 1   
@<TRIPOS>SUBSTRUCTURE
     1 B2C         1 TEMP              0 ****  ****    0 ROOT
