@<TRIPOS>MOLECULE
B2C
   39    40     1     0     0
SMALL
bcc


@<TRIPOS>ATOM
      1 CB1          4.0430     2.3650     0.9040 c3         1 B2C       0.097100
      2 CB2         -0.3580    -1.0010     0.4660 ce         1 B2C      -0.070200
      3 CG1          5.0060     3.5030     0.6050 c3         1 B2C      -0.129100
      4 OG1          2.9140     2.8040     1.6230 oh         1 B2C      -0.585800
      5 CG2         -1.5550    -0.2920     0.0600 ca         1 B2C      -0.062800
      6 CD1         -2.7880    -0.9090     0.2890 ca         1 B2C      -0.063000
      7 CD2         -1.5580     0.9730    -0.5460 ca         1 B2C      -0.046000
      8 CE1         -3.9730    -0.2930    -0.0700 ca         1 B2C      -0.121900
      9 CE2         -2.7400     1.5820    -0.9030 ca         1 B2C      -0.179000
     10 CZ          -3.9750     0.9670    -0.6750 ca         1 B2C       0.160100
     11 OH          -5.0680     1.6340    -1.0520 oh         1 B2C      -0.496100
     12 BR          -5.6090    -1.1740     0.2660 br         1 B2C      -0.130100
     13 C1           2.7160     0.4920    -0.0180 cc         1 B2C       0.535900
     14 C2           2.0580    -1.4480     0.8440 c          1 B2C       0.682700
     15 C3           4.9640    -1.6870    -0.7350 c          1 B2C       0.915600
     16 CA1          3.6420     1.6050    -0.3900 c3         1 B2C       0.115200
     17 CA2          0.9280    -0.6180     0.3610 cd         1 B2C       0.051400
     18 N1           3.0230     2.4020    -1.4260 n8         1 B2C      -0.875800
     19 N2           1.4380     0.5570    -0.1690 nd         1 B2C      -0.663300
     20 N3           3.1550    -0.6460     0.6240 n          1 B2C      -0.369300
     21 O2           2.0670    -2.5640     1.3230 o          1 B2C      -0.589500
     22 O3           4.1580    -1.5860    -1.6740 o          1 B2C      -0.816800
     23 H1           4.5520     1.6570     1.5650 h1         1 B2C       0.091700
     24 H2          -0.5220    -1.9720     0.9230 ha         1 B2C       0.135000
     25 H3           5.3570     3.9560     1.5330 hc         1 B2C       0.038033
     26 H4           5.8790     3.1480     0.0550 hc         1 B2C       0.038033
     27 H5           4.5340     4.2890     0.0130 hc         1 B2C       0.038033
     28 H6           2.4680     3.4870     1.1110 ho         1 B2C       0.391000
     29 H8          -2.8120    -1.8850     0.7570 ha         1 B2C       0.143000
     30 H9          -0.6220     1.4780    -0.7350 ha         1 B2C       0.178000
     31 H10         -2.7290     2.5580    -1.3730 ha         1 B2C       0.142000
     32 H12          4.5620     1.1780    -0.8000 h1         1 B2C       0.114700
     33 H13          4.5660    -1.9350     1.3890 h1         1 B2C       0.045700
     34 H14          5.1890    -0.3610     0.9760 h1         1 B2C       0.045700
     35 H15          2.1280     2.7650    -1.1240 hn         1 B2C       0.343300
     36 H16          3.6090     3.1910    -1.6650 hn         1 B2C       0.343300
     37 O1           6.1110    -2.1670    -0.7470 o          1 B2C      -0.816800
     38 H7          -5.8800     1.1400    -0.8830 ho         1 B2C       0.434000
     39 CA3          4.5070    -1.1440     0.6400 c3         1 B2C      -0.065000
@<TRIPOS>BOND
     1     1     3 1   
     2     1     4 1   
     3     1    16 1   
     4     1    23 1   
     5     2     5 1   
     6     2    17 2   
     7     2    24 1   
     8     3    25 1   
     9     3    26 1   
    10     3    27 1   
    11     4    28 1   
    12     5     6 ar  
    13     5     7 ar  
    14     6     8 ar  
    15     6    29 1   
    16     7     9 ar  
    17     7    30 1   
    18     8    10 ar  
    19     8    12 1   
    20     9    10 ar  
    21     9    31 1   
    22    10    11 1   
    23    11    38 1   
    24    13    16 1   
    25    13    19 2   
    26    13    20 1   
    27    14    17 1   
    28    14    20 1   
    29    14    21 2   
    30    15    22 1   
    31    15    37 1   
    32    15    39 1   
    33    16    18 1   
    34    16    32 1   
    35    17    19 1   
    36    18    35 1   
    37    18    36 1   
    38    20    39 1   
    39    33    39 1   
    40    34    39 1   
@<TRIPOS>SUBSTRUCTURE
     1 B2C         1 TEMP              0 ****  ****    0 ROOT
