@<TRIPOS>MOLECULE
B2D
   46    50     1     0     0
SMALL
No Charge or Current Charge


@<TRIPOS>ATOM
      1 N1          -1.5680    -1.7810     0.2710 na         1 B2D       0.136000
      2 N3          -1.4880    -3.1020     2.0050 nc         1 B2D      -0.069000
      3 C4          -2.0310    -1.9960     1.5230 cd         1 B2D      -0.146000
      4 C5          -3.1220     1.3350    -0.7810 ca         1 B2D      -0.167500
      5 C6          -2.7250     1.4260    -2.1440 ca         1 B2D      -0.076000
      6 C7          -3.0310     2.5540    -2.9230 ca         1 B2D      -0.114500
      7 C8          -3.7360     3.6280    -2.3650 ca         1 B2D      -0.089000
      8 C10         -3.8240     2.4450    -0.2370 ca         1 B2D      -0.076000
      9 C13          1.5220    -0.8020    -1.1510 ca         1 B2D       0.422000
     10 C15          0.9450     1.3810    -1.9750 ca         1 B2D       0.407900
     11 C17          2.2890    -0.1990    -0.1190 ca         1 B2D       0.130000
     12 C20          3.6660    -0.3220     1.7690 ca         1 B2D       0.272900
     13 C21          5.1930     1.0310     3.8570 c3         1 B2D       0.147900
     14 C19          3.7420     1.0900     1.8620 ca         1 B2D       0.104100
     15 C18          3.0550     1.8610     0.9130 ca         1 B2D      -0.124000
     16 N7           2.9590    -0.9590     0.8050 nb         1 B2D      -0.643000
     17 C16          2.3130     1.2290    -0.0990 ca         1 B2D       0.299000
     18 N6           1.6560     1.9920    -1.0060 nb         1 B2D      -0.711000
     19 C14          0.8600    -0.0060    -2.0860 ca         1 B2D      -0.290000
     20 N5           1.4220    -2.1960    -1.2420 nu         1 B2D      -0.948200
     21 C11         -0.6880    -2.7810    -0.0380 cd         1 B2D       0.312800
     22 N2          -1.8990    -0.7150    -0.5460 nd         1 B2D      -0.456800
     23 N4          -0.6280    -3.6020     1.0150 nc         1 B2D      -0.358700
     24 C3          -2.9510    -1.1160     2.1480 cd         1 B2D      -0.027000
     25 C2          -3.3080    -0.0350     1.3750 cc         1 B2D      -0.142000
     26 C1          -2.7640     0.1370     0.0330 cc         1 B2D       0.391500
     27 C9          -4.1280     3.5710    -1.0220 ca         1 B2D      -0.114500
     28 H6          -2.1830     0.6170    -2.6280 ha         1 B2D       0.122500
     29 H7          -2.7210     2.5940    -3.9650 ha         1 B2D       0.124000
     30 H8          -3.9720     4.5020    -2.9690 ha         1 B2D       0.118000
     31 H10         -4.1340     2.4770     0.8020 ha         1 B2D       0.122500
     32 H15          0.4330     2.0290    -2.6860 h4         1 B2D       0.015100
     33 H20          4.1800    -0.9690     2.4780 h4         1 B2D       0.023100
     34 H21          4.5200     0.4020     4.4540 h1         1 B2D       0.044700
     35 H21A         5.9630     0.3920     3.4040 h1         1 B2D       0.044700
     36 H21B         5.6910     1.7350     4.5350 h1         1 B2D       0.044700
     37 H18          3.0960     2.9450     0.9610 ha         1 B2D       0.148000
     38 H14          0.2810    -0.4490    -2.8880 ha         1 B2D       0.126000
     39 HN5          2.0980    -2.6200    -0.5980 hn         1 B2D       0.521000
     40 H12         -0.4790    -2.5720    -2.1620 h1         1 B2D       0.080700
     41 H12A         0.3060    -4.0000    -1.4820 h1         1 B2D       0.080700
     42 H3          -3.3360    -1.2770     3.1500 ha         1 B2D       0.153000
     43 H2          -4.0140     0.6720     1.7820 ha         1 B2D       0.140000
     44 H9          -4.6670     4.4080    -0.5810 ha         1 B2D       0.124000
     45 C12          0.1240    -2.9290    -1.3160 c3         1 B2D       0.232500
     46 O1           4.4620     1.7470     2.8450 os         1 B2D      -0.333100
@<TRIPOS>BOND
     1     1     3 1   
     2     1    21 1   
     3     1    22 1   
     4     2     3 2   
     5     2    23 1   
     6     3    24 1   
     7     4     5 ar  
     8     4     8 ar  
     9     4    26 1   
    10     5     6 ar  
    11     5    28 1   
    12     6     7 ar  
    13     6    29 1   
    14     7    27 ar  
    15     7    30 1   
    16     8    27 ar  
    17     8    31 1   
    18     9    11 ar  
    19     9    19 ar  
    20     9    20 1   
    21    10    18 ar  
    22    10    19 ar  
    23    10    32 1   
    24    11    16 ar  
    25    11    17 ar  
    26    12    14 ar  
    27    12    16 ar  
    28    12    33 1   
    29    13    34 1   
    30    13    35 1   
    31    13    36 1   
    32    13    46 1   
    33    14    15 ar  
    34    14    46 1   
    35    15    17 ar  
    36    15    37 1   
    37    17    18 ar  
    38    19    38 1   
    39    20    39 1   
    40    20    45 1   
    41    21    23 2   
    42    21    45 1   
    43    22    26 2   
    44    24    25 2   
    45    24    42 1   
    46    25    26 1   
    47    25    43 1   
    48    27    44 1   
    49    40    45 1   
    50    41    45 1   
@<TRIPOS>SUBSTRUCTURE
     1 B2D         1 TEMP              0 ****  ****    0 ROOT
