@<TRIPOS>MOLECULE
B2D
   46    50     1     0     0
SMALL
bcc


@<TRIPOS>ATOM
      1 N1          -1.9340    -2.2540     0.2540 na         1 B2D       0.085300
      2 N3          -2.5810    -4.0990     1.2370 nc         1 B2D      -0.069000
      3 C4          -2.8520    -2.8230     1.0970 cd         1 B2D      -0.095300
      4 C5          -2.7190     1.2160    -0.0360 ca         1 B2D      -0.167500
      5 C6          -1.4870     1.7770    -0.3770 ca         1 B2D      -0.094000
      6 C7          -1.4020     3.1020    -0.7700 ca         1 B2D      -0.132500
      7 C8          -2.5470     3.8860    -0.8270 ca         1 B2D      -0.107000
      8 C10         -3.8640     2.0090    -0.0930 ca         1 B2D      -0.094000
      9 C13          1.2370    -0.9230    -1.1040 ca         1 B2D       0.218300
     10 C15          1.0540     0.8070    -2.7630 ca         1 B2D       0.473200
     11 C17          2.0820    -0.0040    -0.3960 ca         1 B2D       0.195300
     12 C20          3.3610     0.4370     1.4530 ca         1 B2D       0.338200
     13 C21          5.0010     2.2110     2.9020 c3         1 B2D       0.124700
     14 C19          3.6780     1.7360     0.9850 ca         1 B2D       0.038800
     15 C18          3.1530     2.1420    -0.2200 ca         1 B2D      -0.207300
     16 N7           2.5960    -0.3830     0.7820 nb         1 B2D      -0.643000
     17 C16          2.3300     1.2710    -0.9540 ca         1 B2D       0.364300
     18 N6           1.8140     1.6770    -2.1380 nb         1 B2D      -0.711000
     19 C14          0.7320    -0.4770    -2.3170 ca         1 B2D      -0.373300
     20 N5           1.0120    -2.1270    -0.5510 nu         1 B2D      -0.754600
     21 C11         -1.0960    -3.2590    -0.1040 cd         1 B2D       0.312800
     22 N2          -1.8790    -0.9840    -0.1340 nd         1 B2D      -0.456800
     23 N4          -1.4890    -4.3540     0.4920 nc         1 B2D      -0.358700
     24 C3          -3.8490    -1.9740     1.6290 cd         1 B2D      -0.045000
     25 C2          -3.8110    -0.6720     1.2590 cc         1 B2D      -0.225300
     26 C1          -2.7940    -0.2030     0.3600 cc         1 B2D       0.456800
     27 C9          -3.7770     3.3370    -0.4890 ca         1 B2D      -0.132500
     28 H6          -0.5950     1.1700    -0.3250 ha         1 B2D       0.140500
     29 H7          -0.4380     3.5180    -1.0330 ha         1 B2D       0.142000
     30 H8          -2.4820     4.9220    -1.1330 ha         1 B2D       0.136000
     31 H10         -4.8350     1.5970     0.1480 ha         1 B2D       0.140500
     32 H15          0.6380     1.1310    -3.7120 h4         1 B2D       0.015100
     33 H20          3.7450     0.0740     2.3990 h4         1 B2D       0.023100
     34 H21          4.2190     2.0040     3.6370 h1         1 B2D       0.044700
     35 H21A         5.6500     1.3360     2.8140 h1         1 B2D       0.044700
     36 H21B         5.5950     3.0520     3.2500 h1         1 B2D       0.044700
     37 H18          3.3660     3.1290    -0.6130 ha         1 B2D       0.166000
     38 H14          0.0780    -1.0850    -2.9250 ha         1 B2D       0.144000
     39 HN5          1.4490    -2.2910     0.3440 hn         1 B2D       0.465800
     40 H12         -0.2690    -2.8530    -2.0180 h1         1 B2D       0.080700
     41 H12A         0.5520    -4.0890    -1.0910 h1         1 B2D       0.080700
     42 H3          -4.5920    -2.3650     2.3090 ha         1 B2D       0.171000
     43 H2          -4.5330     0.0250     1.6570 ha         1 B2D       0.158000
     44 H9          -4.6730     3.9390    -0.5390 ha         1 B2D       0.142000
     45 C12          0.0730    -3.1110    -1.0160 c3         1 B2D       0.232500
     46 O1           4.4600     2.5970     1.6500 os         1 B2D      -0.309900
@<TRIPOS>BOND
     1     1     3 1   
     2     1    21 1   
     3     1    22 1   
     4     2     3 2   
     5     2    23 1   
     6     3    24 1   
     7     4     5 ar  
     8     4     8 ar  
     9     4    26 1   
    10     5     6 ar  
    11     5    28 1   
    12     6     7 ar  
    13     6    29 1   
    14     7    27 ar  
    15     7    30 1   
    16     8    27 ar  
    17     8    31 1   
    18     9    11 ar  
    19     9    19 ar  
    20     9    20 1   
    21    10    18 ar  
    22    10    19 ar  
    23    10    32 1   
    24    11    16 ar  
    25    11    17 ar  
    26    12    14 ar  
    27    12    16 ar  
    28    12    33 1   
    29    13    34 1   
    30    13    35 1   
    31    13    36 1   
    32    13    46 1   
    33    14    15 ar  
    34    14    46 1   
    35    15    17 ar  
    36    15    37 1   
    37    17    18 ar  
    38    19    38 1   
    39    20    39 1   
    40    20    45 1   
    41    21    23 2   
    42    21    45 1   
    43    22    26 2   
    44    24    25 2   
    45    24    42 1   
    46    25    26 1   
    47    25    43 1   
    48    27    44 1   
    49    40    45 1   
    50    41    45 1   
@<TRIPOS>SUBSTRUCTURE
     1 B2D         1 TEMP              0 ****  ****    0 ROOT
