@<TRIPOS>MOLECULE
B2E
   28    28     1     0     0
SMALL
No Charge or Current Charge


@<TRIPOS>ATOM
      1 C5          92.0320   -69.9330     0.2300 cc         1 B2E      -0.503400
      2 C6          93.3600   -69.5920     0.1270 cd         1 B2E       0.395700
      3 O6          94.2280   -70.4070    -0.4840 oh         1 B2E      -0.615100
      4 N1          93.8650   -68.4180     0.6470 n          1 B2E      -0.332000
      5 C2          93.0350   -67.5320     1.3430 c          1 B2E       0.627000
      6 N3          91.6780   -67.8450     1.4320 n          1 B2E      -0.374400
      7 C4          91.1090   -69.0140     0.9230 c          1 B2E       0.606200
      8 N           90.2330   -71.5210    -0.2410 ns         1 B2E      -0.381900
      9 CA          89.5870   -72.7430    -0.7670 c3         1 B2E      -0.061000
     10 C           88.1250   -72.8730    -0.2720 c          1 B2E       0.706000
     11 OXT         87.4370   -71.8630    -0.2270 o          1 B2E      -0.720000
     12 O           87.7390   -73.9710     0.1030 o          1 B2E      -0.720000
     13 CAJ         91.5630   -71.2160    -0.3560 c          1 B2E       0.613300
     14 CAQ         95.3130   -68.0890     0.5120 c3         1 B2E       0.093300
     15 CAR         90.7850   -66.8880     2.1480 c3         1 B2E       0.091300
     16 O2          93.4830   -66.5150     1.8580 o          1 B2E      -0.578000
     17 O4          89.9170   -69.2400     1.0660 o          1 B2E      -0.533000
     18 OAN         92.3300   -71.9820    -0.9250 o          1 B2E      -0.706100
     19 H6          93.6340   -71.1670    -0.7630 ho         1 B2E       0.580000
     20 H           89.6550   -70.8300     0.2320 hn         1 B2E       0.383500
     21 HA2         90.1550   -73.6230    -0.4400 h1         1 B2E       0.044700
     22 HA1         89.5820   -72.7080    -1.8640 h1         1 B2E       0.044700
     23 HA6         95.5040   -67.0200     0.6670 h1         1 B2E       0.057700
     24 HAQ         95.8890   -68.6630     1.2490 h1         1 B2E       0.057700
     25 HA5         95.6690   -68.3420    -0.4950 h1         1 B2E       0.057700
     26 HA4         91.1510   -65.8580     2.0550 h1         1 B2E       0.055367
     27 HA3         89.7700   -66.9070     1.7310 h1         1 B2E       0.055367
     28 HAR         90.7380   -67.1550     3.2120 h1         1 B2E       0.055367
@<TRIPOS>BOND
     1     1     2 2   
     2     1     7 1   
     3     1    13 1   
     4     2     3 1   
     5     2     4 1   
     6     3    19 1   
     7     4     5 1   
     8     4    14 1   
     9     5     6 1   
    10     5    16 2   
    11     6     7 1   
    12     6    15 1   
    13     7    17 2   
    14     8     9 1   
    15     8    13 1   
    16     8    20 1   
    17     9    10 1   
    18     9    21 1   
    19     9    22 1   
    20    10    11 1   
    21    10    12 1   
    22    13    18 2   
    23    14    23 1   
    24    14    24 1   
    25    14    25 1   
    26    15    26 1   
    27    15    27 1   
    28    15    28 1   
@<TRIPOS>SUBSTRUCTURE
     1 B2E         1 TEMP              0 ****  ****    0 ROOT
