@<TRIPOS>MOLECULE
B2E
   28    28     1     0     0
SMALL
abcg2


@<TRIPOS>ATOM
      1 C5          91.9560   -69.8920     0.2720 cc         1 B2E      -0.503400
      2 C6          93.3070   -69.5820     0.1450 cd         1 B2E       0.395700
      3 O6          94.1500   -70.3800    -0.4430 oh         1 B2E      -0.615100
      4 N1          93.8220   -68.4220     0.6340 n          1 B2E      -0.332000
      5 C2          93.0310   -67.4800     1.2930 c          1 B2E       0.627000
      6 N3          91.6920   -67.7910     1.4160 n          1 B2E      -0.374400
      7 C4          91.0920   -68.9650     0.9360 c          1 B2E       0.606200
      8 N           90.2300   -71.5140    -0.1840 ns         1 B2E      -0.381900
      9 CA          89.6870   -72.7640    -0.6720 c3         1 B2E      -0.061000
     10 C           88.2050   -72.9210    -0.2680 c          1 B2E       0.706000
     11 OXT         87.6680   -71.9660     0.3440 o          1 B2E      -0.720000
     12 O           87.6770   -74.0070    -0.6030 o          1 B2E      -0.720000
     13 CAJ         91.5030   -71.1690    -0.2850 c          1 B2E       0.613300
     14 CAQ         95.2550   -68.1540     0.4640 c3         1 B2E       0.093300
     15 CAR         90.8150   -66.8330     2.0960 c3         1 B2E       0.091300
     16 O2          93.5120   -66.4470     1.7290 o          1 B2E      -0.578000
     17 O4          89.8810   -69.1200     1.1160 o          1 B2E      -0.533000
     18 OAN         92.3460   -71.9320    -0.8580 o          1 B2E      -0.706100
     19 H6          93.5340   -71.2050    -0.7380 ho         1 B2E       0.580000
     20 H           89.5880   -70.8840     0.2890 hn         1 B2E       0.383500
     21 HA2         90.2530   -73.6090    -0.2750 h1         1 B2E       0.044700
     22 HA1         89.7560   -72.8170    -1.7620 h1         1 B2E       0.044700
     23 HA6         95.4650   -67.1900     0.9090 h1         1 B2E       0.057700
     24 HAQ         95.8350   -68.9290     0.9590 h1         1 B2E       0.057700
     25 HA5         95.5010   -68.1370    -0.5960 h1         1 B2E       0.057700
     26 HA4         91.4120   -65.9810     2.3960 h1         1 B2E       0.055367
     27 HA3         90.0240   -66.5180     1.4180 h1         1 B2E       0.055367
     28 HAR         90.3670   -67.3020     2.9690 h1         1 B2E       0.055367
@<TRIPOS>BOND
     1     1     2 2   
     2     1     7 1   
     3     1    13 1   
     4     2     3 1   
     5     2     4 1   
     6     3    19 1   
     7     4     5 1   
     8     4    14 1   
     9     5     6 1   
    10     5    16 2   
    11     6     7 1   
    12     6    15 1   
    13     7    17 2   
    14     8     9 1   
    15     8    13 1   
    16     8    20 1   
    17     9    10 1   
    18     9    21 1   
    19     9    22 1   
    20    10    11 1   
    21    10    12 1   
    22    13    18 2   
    23    14    23 1   
    24    14    24 1   
    25    14    25 1   
    26    15    26 1   
    27    15    27 1   
    28    15    28 1   
@<TRIPOS>SUBSTRUCTURE
     1 B2E         1 TEMP              0 ****  ****    0 ROOT
