@<TRIPOS>MOLECULE
B2H
   44    46     1     0     0
SMALL
No Charge or Current Charge


@<TRIPOS>ATOM
      1 N1          -2.4120     2.8480     1.4280 n8         1 B2H      -1.005200
      2 CA1         -2.7380     1.4480     0.9760 c3         1 B2H       0.132200
      3 CB1         -4.0660     1.3810     0.1470 c3         1 B2H       0.115300
      4 CG1         -5.3190     1.7480     0.9720 c3         1 B2H      -0.125100
      5 OG1         -4.0070     2.2500    -0.9980 oh         1 B2H      -0.633000
      6 C1          -1.5850     0.7340     0.2490 cc         1 B2H       0.383800
      7 N2          -0.5940     1.3550    -0.3950 nd         1 B2H      -0.669000
      8 N3          -1.4370    -0.6500     0.1790 na         1 B2H      -0.192500
      9 C2          -0.3050    -0.8720    -0.5720 cc         1 B2H       0.096100
     10 O2           0.1300    -2.1130    -0.8900 oh         1 B2H      -0.613100
     11 CA2          0.2180     0.3560    -0.8980 cd         1 B2H       0.149300
     12 CA3         -2.2890    -1.6800     0.8320 c3         1 B2H      -0.080400
     13 C3          -2.8560    -2.7310    -0.1330 c          1 B2H       0.716000
     14 O3          -2.0580    -3.5180    -0.6260 o          1 B2H      -0.691000
     15 CB2          1.4570     0.6570    -1.7080 c3         1 B2H       0.003500
     16 CG2          2.6660     0.9780    -0.8660 cc         1 B2H      -0.094400
     17 CD1          3.1060     2.2380    -0.4690 cd         1 B2H      -0.178100
     18 CD2          3.5990     0.0420    -0.3030 ca         1 B2H      -0.087800
     19 CE2          4.5390     0.7550     0.3890 ca         1 B2H      -0.050200
     20 NE1          4.2780     2.1100     0.3150 na         1 B2H      -0.237700
     21 CE3          3.6410    -1.3580    -0.3790 ca         1 B2H      -0.034000
     22 CZ2          5.5940     0.1190     1.0580 ca         1 B2H      -0.150000
     23 CZ3          4.6930    -2.0250     0.2850 ca         1 B2H      -0.163000
     24 CH2          5.6660    -1.2890     1.0010 ca         1 B2H      -0.099000
     25 H1          -2.0320     3.3630     0.6250 hn         1 B2H       0.400000
     26 H2          -3.2770     3.3420     1.6750 hn         1 B2H       0.400000
     27 H4          -2.9230     0.8790     1.8970 h1         1 B2H       0.061700
     28 H5          -4.1930     0.3400    -0.1870 h1         1 B2H       0.114700
     29 H6          -5.2850     2.7870     1.3210 hc         1 B2H       0.032700
     30 H7          -6.2270     1.6200     0.3680 hc         1 B2H       0.032700
     31 H8          -5.4060     1.0940     1.8480 hc         1 B2H       0.032700
     32 H9          -4.0110     3.1710    -0.6620 ho         1 B2H       0.417000
     33 H10         -1.6880    -2.2040     1.5860 h1         1 B2H       0.046700
     34 H11         -3.1300    -1.2060     1.3500 h1         1 B2H       0.046700
     35 H13          1.6860    -0.1940    -2.3610 hc         1 B2H       0.043200
     36 H14          2.6680     3.2080    -0.6870 h4         1 B2H       0.204000
     37 H15          4.8170     2.8590     0.7400 hn         1 B2H       0.335000
     38 H16          2.8880    -1.9140    -0.9320 ha         1 B2H       0.143000
     39 H17          6.3370     0.6940     1.6060 ha         1 B2H       0.097000
     40 H18          4.7550    -3.1100     0.2460 ha         1 B2H       0.103000
     41 H19          6.4740    -1.8100     1.5110 ha         1 B2H       0.093000
     42 OXT         -4.0450    -2.6900    -0.4100 o          1 B2H      -0.691000
     43 H3          -0.6480    -2.7310    -0.7550 ho         1 B2H       0.551000
     44 H12          1.2560     1.4960    -2.3850 hc         1 B2H       0.043200
@<TRIPOS>BOND
     1     1     2 1   
     2     1    25 1   
     3     1    26 1   
     4     2     3 1   
     5     2     6 1   
     6     2    27 1   
     7     3     4 1   
     8     3     5 1   
     9     3    28 1   
    10     4    29 1   
    11     4    30 1   
    12     4    31 1   
    13     5    32 1   
    14     6     7 2   
    15     6     8 1   
    16     7    11 1   
    17     8     9 1   
    18     8    12 1   
    19     9    10 1   
    20     9    11 2   
    21    10    43 1   
    22    11    15 1   
    23    12    13 1   
    24    12    33 1   
    25    12    34 1   
    26    13    14 1   
    27    13    42 1   
    28    15    16 1   
    29    15    35 1   
    30    15    44 1   
    31    16    17 2   
    32    16    18 1   
    33    17    20 1   
    34    17    36 1   
    35    18    19 ar  
    36    18    21 ar  
    37    19    20 1   
    38    19    22 ar  
    39    20    37 1   
    40    21    23 ar  
    41    21    38 1   
    42    22    24 ar  
    43    22    39 1   
    44    23    24 ar  
    45    23    40 1   
    46    24    41 1   
@<TRIPOS>SUBSTRUCTURE
     1 B2H         1 TEMP              0 ****  ****    0 ROOT
