@<TRIPOS>MOLECULE
B2H
   44    46     1     0     0
SMALL
bcc


@<TRIPOS>ATOM
      1 N1          -2.0710     2.5750     1.5290 n8         1 B2H      -0.894800
      2 CA1         -2.5220     1.2600     1.1150 c3         1 B2H       0.132200
      3 CB1         -3.8610     1.2360     0.3350 c3         1 B2H       0.092100
      4 CG1         -5.0250     1.7310     1.1800 c3         1 B2H      -0.125100
      5 OG1         -3.7570     1.9370    -0.8840 oh         1 B2H      -0.570800
      6 C1          -1.4410     0.6220     0.2960 cc         1 B2H       0.383800
      7 N2          -0.4910     1.2610    -0.3260 nd         1 B2H      -0.669000
      8 N3          -1.3900    -0.7150     0.0290 na         1 B2H      -0.213900
      9 C2          -0.3370    -0.9040    -0.8370 cc         1 B2H       0.081500
     10 O2          -0.0130    -2.1130    -1.2900 oh         1 B2H      -0.574100
     11 CA2          0.2130     0.3270    -1.0480 cd         1 B2H       0.214600
     12 CA3         -2.1970    -1.7740     0.6040 c3         1 B2H      -0.109700
     13 C3          -3.0090    -2.5620    -0.4420 c          1 B2H       0.926600
     14 O3          -2.3750    -2.9340    -1.4710 o          1 B2H      -0.796300
     15 CB2          1.4040     0.6790    -1.8780 c3         1 B2H       0.003500
     16 CG2          2.6150     1.0190    -1.0650 cc         1 B2H      -0.094400
     17 CD1          3.2060     2.2430    -0.9390 cd         1 B2H      -0.128100
     18 CD2          3.3740     0.1260    -0.2400 ca         1 B2H      -0.087800
     19 CE2          4.4100     0.8840     0.3510 ca         1 B2H      -0.050200
     20 NE1          4.2790     2.1670    -0.0920 na         1 B2H      -0.187400
     21 CE3          3.2810    -1.2410     0.0490 ca         1 B2H      -0.052000
     22 CZ2          5.3460     0.3150     1.2150 ca         1 B2H      -0.168000
     23 CZ3          4.2060    -1.8080     0.9050 ca         1 B2H      -0.181000
     24 CH2          5.2280    -1.0360     1.4820 ca         1 B2H      -0.117000
     25 H1          -1.7880     3.1280     0.7300 hn         1 B2H       0.344800
     26 H2          -2.8080     3.0750     2.0070 hn         1 B2H       0.344800
     27 H4          -2.6820     0.6690     2.0260 h1         1 B2H       0.061700
     28 H5          -4.0700     0.1990     0.0550 h1         1 B2H       0.114700
     29 H6          -4.9030     2.7750     1.4800 hc         1 B2H       0.032700
     30 H7          -5.9600     1.6590     0.6240 hc         1 B2H       0.032700
     31 H8          -5.1300     1.1350     2.0870 hc         1 B2H       0.032700
     32 H9          -3.6220     2.8700    -0.6860 ho         1 B2H       0.378000
     33 H10         -1.5400    -2.4730     1.1330 h1         1 B2H       0.046700
     34 H11         -2.8570    -1.3400     1.3500 h1         1 B2H       0.046700
     35 H13          1.6270    -0.1570    -2.5470 hc         1 B2H       0.043200
     36 H14          2.9360     3.1820    -1.3970 h4         1 B2H       0.154000
     37 H15          4.8760     2.9380     0.1550 hn         1 B2H       0.284700
     38 H16          2.4970    -1.8460    -0.3910 ha         1 B2H       0.161000
     39 H17          6.1360     0.9070     1.6600 ha         1 B2H       0.115000
     40 H18          4.1440    -2.8630     1.1380 ha         1 B2H       0.121000
     41 H19          5.9380    -1.5100     2.1480 ha         1 B2H       0.111000
     42 OXT         -4.1900    -2.8020    -0.1920 o          1 B2H      -0.796300
     43 H3          -0.9050    -2.5900    -1.4410 ho         1 B2H       0.512000
     44 H12          1.1670     1.5280    -2.5260 hc         1 B2H       0.043200
@<TRIPOS>BOND
     1     1     2 1   
     2     1    25 1   
     3     1    26 1   
     4     2     3 1   
     5     2     6 1   
     6     2    27 1   
     7     3     4 1   
     8     3     5 1   
     9     3    28 1   
    10     4    29 1   
    11     4    30 1   
    12     4    31 1   
    13     5    32 1   
    14     6     7 2   
    15     6     8 1   
    16     7    11 1   
    17     8     9 1   
    18     8    12 1   
    19     9    10 1   
    20     9    11 2   
    21    10    43 1   
    22    11    15 1   
    23    12    13 1   
    24    12    33 1   
    25    12    34 1   
    26    13    14 1   
    27    13    42 1   
    28    15    16 1   
    29    15    35 1   
    30    15    44 1   
    31    16    17 2   
    32    16    18 1   
    33    17    20 1   
    34    17    36 1   
    35    18    19 ar  
    36    18    21 ar  
    37    19    20 1   
    38    19    22 ar  
    39    20    37 1   
    40    21    23 ar  
    41    21    38 1   
    42    22    24 ar  
    43    22    39 1   
    44    23    24 ar  
    45    23    40 1   
    46    24    41 1   
@<TRIPOS>SUBSTRUCTURE
     1 B2H         1 TEMP              0 ****  ****    0 ROOT
