@<TRIPOS>MOLECULE
B2J
   21    21     1     0     0
SMALL
No Charge or Current Charge


@<TRIPOS>ATOM
      1 C1           4.2970     0.2400    -0.0300 c3         1 B2J      -0.085100
      2 C2           2.8000     0.5940    -0.0010 c3         1 B2J       0.043600
      3 S3           1.7740    -0.9440    -0.0660 ss         1 B2J      -0.304300
      4 C4           0.0850    -0.3530    -0.0190 ca         1 B2J       0.291300
      5 N5          -0.1370     0.9780     0.0270 nb         1 B2J      -0.311000
      6 N6          -0.8880    -1.2890    -0.0340 nb         1 B2J      -0.247000
      7 C7          -2.1500    -0.8100    -0.0010 ca         1 B2J       0.208300
      8 C8          -3.2850    -1.8180    -0.0080 c3         1 B2J      -0.140400
      9 N9          -2.4780     0.4970     0.0500 nb         1 B2J      -0.300000
     10 C10         -1.4280     1.3270     0.0610 ca         1 B2J       0.419900
     11 N11         -1.6980     2.6490     0.1070 nv         1 B2J      -1.065900
     12 H1           4.9050     1.1520     0.0090 hc         1 B2J       0.045700
     13 H1A          4.5620    -0.3870     0.8290 hc         1 B2J       0.045700
     14 H1B          4.5480    -0.3030    -0.9490 hc         1 B2J       0.045700
     15 H2           2.5680     1.1450     0.9190 h1         1 B2J       0.073700
     16 H2A          2.5540     1.2300    -0.8610 h1         1 B2J       0.073700
     17 H8          -3.5810    -2.0760     1.0160 hc         1 B2J       0.063033
     18 H8A         -4.1680    -1.4220    -0.5240 hc         1 B2J       0.063033
     19 H8B         -2.9940    -2.7450    -0.5170 hc         1 B2J       0.063033
     20 HN11        -0.9490     3.2970    -0.1230 hn         1 B2J       0.508000
     21 HN1A        -2.6440     2.9550    -0.1060 hn         1 B2J       0.508000
@<TRIPOS>BOND
     1     1     2 1   
     2     1    12 1   
     3     1    13 1   
     4     1    14 1   
     5     2     3 1   
     6     2    15 1   
     7     2    16 1   
     8     3     4 1   
     9     4     5 ar  
    10     4     6 ar  
    11     5    10 ar  
    12     6     7 ar  
    13     7     8 1   
    14     7     9 ar  
    15     8    17 1   
    16     8    18 1   
    17     8    19 1   
    18     9    10 ar  
    19    10    11 1   
    20    11    20 1   
    21    11    21 1   
@<TRIPOS>SUBSTRUCTURE
     1 B2J         1 TEMP              0 ****  ****    0 ROOT
