@<TRIPOS>MOLECULE
B2J
   21    21     1     0     0
SMALL
abcg2


@<TRIPOS>ATOM
      1 C1           4.2030     0.1850    -0.0200 c3         1 B2J      -0.085100
      2 C2           2.7390     0.5920    -0.0090 c3         1 B2J       0.043600
      3 S3           1.7240    -0.9140    -0.0360 ss         1 B2J      -0.304300
      4 C4           0.0920    -0.2970    -0.0270 ca         1 B2J       0.291300
      5 N5          -0.1190     1.0000    -0.0120 nb         1 B2J      -0.311000
      6 N6          -0.8380    -1.2490    -0.0390 nb         1 B2J      -0.247000
      7 C7          -2.0900    -0.7970    -0.0340 ca         1 B2J       0.208300
      8 C8          -3.1860    -1.8100    -0.0110 c3         1 B2J      -0.140400
      9 N9          -2.4330     0.4800    -0.0200 nb         1 B2J      -0.300000
     10 C10         -1.4140     1.3490    -0.0080 ca         1 B2J       0.419900
     11 N11         -1.7020     2.6470     0.0070 nv         1 B2J      -1.065900
     12 H1           4.8250     1.0790    -0.0040 hc         1 B2J       0.045700
     13 H1A          4.4630    -0.4170     0.8500 hc         1 B2J       0.045700
     14 H1B          4.4580    -0.3800    -0.9160 hc         1 B2J       0.045700
     15 H2           2.4980     1.1650     0.8860 h1         1 B2J       0.073700
     16 H2A          2.4950     1.2000    -0.8780 h1         1 B2J       0.073700
     17 H8          -3.4460    -2.0400     1.0240 hc         1 B2J       0.063033
     18 H8A         -4.0800    -1.4300    -0.4990 hc         1 B2J       0.063033
     19 H8B         -2.8710    -2.7360    -0.4860 hc         1 B2J       0.063033
     20 HN11        -0.9680     3.3340     0.0090 hn         1 B2J       0.508000
     21 HN1A        -2.6580     2.9580     0.0030 hn         1 B2J       0.508000
@<TRIPOS>BOND
     1     1     2 1   
     2     1    12 1   
     3     1    13 1   
     4     1    14 1   
     5     2     3 1   
     6     2    15 1   
     7     2    16 1   
     8     3     4 1   
     9     4     5 ar  
    10     4     6 ar  
    11     5    10 ar  
    12     6     7 ar  
    13     7     8 1   
    14     7     9 ar  
    15     8    17 1   
    16     8    18 1   
    17     8    19 1   
    18     9    10 ar  
    19    10    11 1   
    20    11    20 1   
    21    11    21 1   
@<TRIPOS>SUBSTRUCTURE
     1 B2J         1 TEMP              0 ****  ****    0 ROOT
