@<TRIPOS>MOLECULE
B2K
   31    32     1     0     0
SMALL
abcg2


@<TRIPOS>ATOM
      1 C1          63.3050    13.1960    25.6910 ca         1 B2K      -0.001500
      2 C2          62.8790    14.4990    25.4810 ca         1 B2K      -0.135500
      3 C3          62.3730    14.9030    24.2410 ca         1 B2K      -0.018300
      4 C4          61.8890    16.3100    24.0360 c3         1 B2K      -0.057800
      5 C5          62.3050    13.9640    23.2080 ca         1 B2K      -0.135500
      6 C6          62.7230    12.6560    23.4000 ca         1 B2K      -0.001500
      7 C7          63.2170    12.2800    24.6460 ca         1 B2K      -0.274500
      8 S8          63.7700    10.6240    24.8840 sy         1 B2K       0.966600
      9 O9          62.9940     9.7360    24.0410 o          1 B2K      -0.520500
     10 O10         63.8470    10.3520    26.3060 o          1 B2K      -0.520500
     11 C11         65.4620    10.6330    24.2440 ca         1 B2K       0.000900
     12 N12         66.2620    11.5240    24.7970 nb         1 B2K      -0.195000
     13 C13         65.8320     9.7340    23.2670 ca         1 B2K      -0.208000
     14 C14         67.1750     9.8050    22.8660 ca         1 B2K       0.170300
     15 C15         67.7250     8.8820    21.8250 c3         1 B2K      -0.153400
     16 N16         68.0090    10.6950    23.3950 nb         1 B2K      -0.236000
     17 C17         67.5290    11.5260    24.3410 ca         1 B2K       0.383900
     18 N18         68.3840    12.4150    24.8820 nv         1 B2K      -1.070900
     19 H1          63.6970    12.8900    26.6500 ha         1 B2K       0.137500
     20 H2          62.9430    15.2160    26.2900 ha         1 B2K       0.118000
     21 H4          61.8580    16.5670    22.9780 hc         1 B2K       0.049700
     22 H4A         60.8790    16.4260    24.4390 hc         1 B2K       0.049700
     23 H4B         62.5290    17.0250    24.5550 hc         1 B2K       0.049700
     24 H5          61.9190    14.2620    22.2410 ha         1 B2K       0.118000
     25 H6          62.6650    11.9360    22.5950 ha         1 B2K       0.137500
     26 H13         65.1400     9.0280    22.8390 ha         1 B2K       0.158000
     27 H15         68.1720     9.4590    21.0130 hc         1 B2K       0.059367
     28 H15A        68.5150     8.2660    22.2600 hc         1 B2K       0.059367
     29 H15B        66.9520     8.2310    21.4200 hc         1 B2K       0.059367
     30 HN18        68.0370    13.1200    25.5090 hn         1 B2K       0.505500
     31 HN1A        69.3050    12.5160    24.4920 hn         1 B2K       0.505500
@<TRIPOS>BOND
     1     1     2 ar  
     2     1     7 ar  
     3     1    19 1   
     4     2     3 ar  
     5     2    20 1   
     6     3     4 1   
     7     3     5 ar  
     8     4    21 1   
     9     4    22 1   
    10     4    23 1   
    11     5     6 ar  
    12     5    24 1   
    13     6     7 ar  
    14     6    25 1   
    15     7     8 1   
    16     8     9 2   
    17     8    10 2   
    18     8    11 1   
    19    11    12 ar  
    20    11    13 ar  
    21    12    17 ar  
    22    13    14 ar  
    23    13    26 1   
    24    14    15 1   
    25    14    16 ar  
    26    15    27 1   
    27    15    28 1   
    28    15    29 1   
    29    16    17 ar  
    30    17    18 1   
    31    18    30 1   
    32    18    31 1   
@<TRIPOS>SUBSTRUCTURE
     1 B2K         1 TEMP              0 ****  ****    0 ROOT
