@<TRIPOS>MOLECULE
B2K
   31    32     1     0     0
SMALL
No Charge or Current Charge


@<TRIPOS>ATOM
      1 C1          63.4630    13.3950    25.5950 ca         1 B2K      -0.001500
      2 C2          63.0000    14.6580    25.1880 ca         1 B2K      -0.135500
      3 C3          62.3130    14.8070    23.9680 ca         1 B2K      -0.018300
      4 C4          61.8110    16.1740    23.5330 c3         1 B2K      -0.057800
      5 C5          62.0920    13.6780    23.1590 ca         1 B2K      -0.135500
      6 C6          62.5530    12.4120    23.5590 ca         1 B2K      -0.001500
      7 C7          63.2370    12.2660    24.7830 ca         1 B2K      -0.274500
      8 S8          63.8490    10.6440    25.2940 sy         1 B2K       0.966600
      9 O9          63.0330     9.6280    24.6090 o          1 B2K      -0.520500
     10 O10         63.9650    10.6560    26.7610 o          1 B2K      -0.520500
     11 C11         65.5250    10.5950    24.5840 ca         1 B2K       0.000900
     12 N12         66.5420    11.0780    25.3370 nb         1 B2K      -0.195000
     13 C13         65.7670    10.0970    23.2830 ca         1 B2K      -0.208000
     14 C14         67.0920    10.1140    22.8090 ca         1 B2K       0.170300
     15 C15         67.4460     9.6050    21.4240 c3         1 B2K      -0.153400
     16 N16         68.1000    10.5940    23.5650 nb         1 B2K      -0.236000
     17 C17         67.7660    11.0470    24.7840 ca         1 B2K       0.383900
     18 N18         68.7850    11.5310    25.5400 nv         1 B2K      -1.070900
     19 H1          63.9980    13.3030    26.5400 ha         1 B2K       0.137500
     20 H2          63.1760    15.5230    25.8230 ha         1 B2K       0.118000
     21 H4          61.7910    16.2640    22.4400 hc         1 B2K       0.049700
     22 H4A         60.7940    16.3520    23.9030 hc         1 B2K       0.049700
     23 H4B         62.4520    16.9770    23.9160 hc         1 B2K       0.049700
     24 H5          61.5620    13.7800    22.2150 ha         1 B2K       0.118000
     25 H6          62.3750    11.5520    22.9150 ha         1 B2K       0.137500
     26 H13         64.9580     9.7140    22.6640 ha         1 B2K       0.158000
     27 H15         67.4250    10.4220    20.6930 hc         1 B2K       0.059367
     28 H15A        68.4490     9.1610    21.4040 hc         1 B2K       0.059367
     29 H15B        66.7390     8.8370    21.0900 hc         1 B2K       0.059367
     30 HN18        68.5580    12.0810    26.3660 hn         1 B2K       0.505500
     31 HN1A        69.6760    11.7320    25.0890 hn         1 B2K       0.505500
@<TRIPOS>BOND
     1     1     2 ar  
     2     1     7 ar  
     3     1    19 1   
     4     2     3 ar  
     5     2    20 1   
     6     3     4 1   
     7     3     5 ar  
     8     4    21 1   
     9     4    22 1   
    10     4    23 1   
    11     5     6 ar  
    12     5    24 1   
    13     6     7 ar  
    14     6    25 1   
    15     7     8 1   
    16     8     9 2   
    17     8    10 2   
    18     8    11 1   
    19    11    12 ar  
    20    11    13 ar  
    21    12    17 ar  
    22    13    14 ar  
    23    13    26 1   
    24    14    15 1   
    25    14    16 ar  
    26    15    27 1   
    27    15    28 1   
    28    15    29 1   
    29    16    17 ar  
    30    17    18 1   
    31    18    30 1   
    32    18    31 1   
@<TRIPOS>SUBSTRUCTURE
     1 B2K         1 TEMP              0 ****  ****    0 ROOT
