@<TRIPOS>MOLECULE
B2L
   36    39     1     0     0
SMALL
No Charge or Current Charge


@<TRIPOS>ATOM
      1 C1          -3.9920     1.5650    -0.6740 c6         1 B2L       0.197900
      2 O2          -4.7880     0.7750     0.2350 os         1 B2L      -0.436000
      3 C3          -4.6060    -0.6490     0.0890 c6         1 B2L       0.198900
      4 C4          -3.1270    -1.0000     0.2800 ca         1 B2L      -0.110300
      5 C5          -2.7660    -2.2690     0.7630 ca         1 B2L      -0.095000
      6 C6          -1.4150    -2.5910     0.9470 ca         1 B2L      -0.110000
      7 C7          -0.4160    -1.6530     0.6400 ca         1 B2L      -0.081000
      8 C8          -0.7520    -0.3760     0.1320 ca         1 B2L       0.001000
      9 C9          -2.1240    -0.0540    -0.0300 ca         1 B2L      -0.026000
     10 C10         -2.5090     1.2220    -0.4930 ca         1 B2L      -0.093300
     11 C11         -1.5280     2.1810    -0.7890 ca         1 B2L      -0.106000
     12 C12         -0.1700     1.8690    -0.6350 ca         1 B2L      -0.087000
     13 C13          0.2500     0.5920    -0.1900 cp         1 B2L      -0.135500
     14 C14          1.7180     0.3300    -0.0840 cp         1 B2L       0.219500
     15 N15          2.2350    -0.7020    -0.7820 nb         1 B2L      -0.248000
     16 C16          2.5720     1.1790     0.6570 ca         1 B2L      -0.274000
     17 C17          3.9480     0.8970     0.6660 ca         1 B2L       0.170300
     18 C18          4.9320     1.7480     1.4460 c3         1 B2L      -0.151400
     19 N19          4.4480    -0.1500    -0.0200 nb         1 B2L      -0.256000
     20 C20          3.5600    -0.8850    -0.7050 ca         1 B2L       0.381900
     21 N21          4.0630    -1.9320    -1.4050 nv         1 B2L      -1.061900
     22 H1          -4.3020     1.3590    -1.7090 h1         1 B2L       0.056200
     23 H1A         -4.1650     2.6310    -0.4650 h1         1 B2L       0.056200
     24 H3          -5.2210    -1.1650     0.8400 h1         1 B2L       0.054700
     25 H3A         -4.9420    -0.9620    -0.9100 h1         1 B2L       0.054700
     26 H5          -3.5330    -3.0040     1.0030 ha         1 B2L       0.113000
     27 H6          -1.1380    -3.5700     1.3330 ha         1 B2L       0.114000
     28 H7           0.6180    -1.9330     0.8140 ha         1 B2L       0.130000
     29 H11         -1.8160     3.1680    -1.1440 ha         1 B2L       0.115000
     30 H12          0.5750     2.6230    -0.8820 ha         1 B2L       0.117000
     31 H16          2.1690     2.0240     1.2080 ha         1 B2L       0.136000
     32 H18          5.1740     1.2800     2.4080 hc         1 B2L       0.055367
     33 H18A         5.8680     1.8850     0.8920 hc         1 B2L       0.055367
     34 H18B         4.5220     2.7440     1.6520 hc         1 B2L       0.055367
     35 HN21         3.4740    -2.3750    -2.1060 hn         1 B2L       0.494000
     36 HN2A         5.0690    -1.9800    -1.5560 hn         1 B2L       0.494000
@<TRIPOS>BOND
     1     1     2 1   
     2     1    10 1   
     3     1    22 1   
     4     1    23 1   
     5     2     3 1   
     6     3     4 1   
     7     3    24 1   
     8     3    25 1   
     9     4     5 ar  
    10     4     9 ar  
    11     5     6 ar  
    12     5    26 1   
    13     6     7 ar  
    14     6    27 1   
    15     7     8 ar  
    16     7    28 1   
    17     8     9 ar  
    18     8    13 ar  
    19     9    10 ar  
    20    10    11 ar  
    21    11    12 ar  
    22    11    29 1   
    23    12    13 ar  
    24    12    30 1   
    25    13    14 1   
    26    14    15 ar  
    27    14    16 ar  
    28    15    20 ar  
    29    16    17 ar  
    30    16    31 1   
    31    17    18 1   
    32    17    19 ar  
    33    18    32 1   
    34    18    33 1   
    35    18    34 1   
    36    19    20 ar  
    37    20    21 1   
    38    21    35 1   
    39    21    36 1   
@<TRIPOS>SUBSTRUCTURE
     1 B2L         1 TEMP              0 ****  ****    0 ROOT
