@<TRIPOS>MOLECULE
B2L
   36    39     1     0     0
SMALL
bcc


@<TRIPOS>ATOM
      1 C1          -3.9450     1.5410    -0.5950 c6         1 B2L       0.174700
      2 O2          -4.7270     0.7530     0.2690 os         1 B2L      -0.389600
      3 C3          -4.5330    -0.6220     0.0410 c6         1 B2L       0.175700
      4 C4          -3.0960    -1.0190     0.2430 ca         1 B2L      -0.110300
      5 C5          -2.7400    -2.2700     0.6680 ca         1 B2L      -0.113000
      6 C6          -1.3830    -2.6010     0.8340 ca         1 B2L      -0.128000
      7 C7          -0.3980    -1.6900     0.5670 ca         1 B2L      -0.099000
      8 C8          -0.7210    -0.3860     0.1170 ca         1 B2L       0.001000
      9 C9          -2.0940    -0.0530    -0.0270 ca         1 B2L      -0.026000
     10 C10         -2.4790     1.2480    -0.4380 ca         1 B2L      -0.093300
     11 C11         -1.5190     2.1910    -0.6790 ca         1 B2L      -0.124000
     12 C12         -0.1580     1.8710    -0.5410 ca         1 B2L      -0.105000
     13 C13          0.2550     0.6160    -0.1650 cp         1 B2L      -0.135500
     14 C14          1.7100     0.3550    -0.0790 cp         1 B2L       0.547800
     15 N15          2.1830    -0.7230    -0.6910 nb         1 B2L      -0.774000
     16 C16          2.5450     1.2380     0.5970 ca         1 B2L      -0.422600
     17 C17          3.9040     0.9450     0.6010 ca         1 B2L       0.498600
     18 C18          4.8840     1.8150     1.3200 c3         1 B2L      -0.151400
     19 N19          4.3840    -0.1310    -0.0100 nb         1 B2L      -0.782000
     20 C20          3.5020    -0.9230    -0.6250 ca         1 B2L       0.907900
     21 N21          3.9820    -2.0370    -1.2150 nv         1 B2L      -0.951500
     22 H1          -4.2420     1.3770    -1.6430 h1         1 B2L       0.056200
     23 H1A         -4.1520     2.5860    -0.3610 h1         1 B2L       0.056200
     24 H3          -5.1800    -1.1610     0.7340 h1         1 B2L       0.054700
     25 H3A         -4.8500    -0.8920    -0.9770 h1         1 B2L       0.054700
     26 H5          -3.5030    -3.0080     0.8880 ha         1 B2L       0.131000
     27 H6          -1.1160    -3.5890     1.1880 ha         1 B2L       0.132000
     28 H7           0.6350    -1.9720     0.7020 ha         1 B2L       0.148000
     29 H11         -1.8000     3.1930    -0.9830 ha         1 B2L       0.133000
     30 H12          0.5810     2.6340    -0.7540 ha         1 B2L       0.135000
     31 H16          2.1580     2.1070     1.1080 ha         1 B2L       0.154000
     32 H18          5.2030     1.3290     2.2440 hc         1 B2L       0.055367
     33 H18A         5.7760     1.9760     0.7160 hc         1 B2L       0.055367
     34 H18B         4.4530     2.7800     1.5790 hc         1 B2L       0.055367
     35 HN21         3.3880    -2.5390    -1.8510 hn         1 B2L       0.438800
     36 HN2A         4.9740    -2.1160    -1.3580 hn         1 B2L       0.438800
@<TRIPOS>BOND
     1     1     2 1   
     2     1    10 1   
     3     1    22 1   
     4     1    23 1   
     5     2     3 1   
     6     3     4 1   
     7     3    24 1   
     8     3    25 1   
     9     4     5 ar  
    10     4     9 ar  
    11     5     6 ar  
    12     5    26 1   
    13     6     7 ar  
    14     6    27 1   
    15     7     8 ar  
    16     7    28 1   
    17     8     9 ar  
    18     8    13 ar  
    19     9    10 ar  
    20    10    11 ar  
    21    11    12 ar  
    22    11    29 1   
    23    12    13 ar  
    24    12    30 1   
    25    13    14 1   
    26    14    15 ar  
    27    14    16 ar  
    28    15    20 ar  
    29    16    17 ar  
    30    16    31 1   
    31    17    18 1   
    32    17    19 ar  
    33    18    32 1   
    34    18    33 1   
    35    18    34 1   
    36    19    20 ar  
    37    20    21 1   
    38    21    35 1   
    39    21    36 1   
@<TRIPOS>SUBSTRUCTURE
     1 B2L         1 TEMP              0 ****  ****    0 ROOT
