@<TRIPOS>MOLECULE
B2M
   38    40     1     0     0
SMALL
No Charge or Current Charge


@<TRIPOS>ATOM
      1 CAA         -2.4030     4.9920     0.9080 c3         1 B2M      -0.151400
      2 CAR         -2.4390     3.5230     0.5350 ca         1 B2M       0.374300
      3 CAK         -1.2930     2.7230     0.6390 ca         1 B2M      -0.145000
      4 NAO         -3.6280     3.0390     0.1300 nb         1 B2M      -0.656000
      5 CAY         -3.7220     1.7340    -0.2050 ca         1 B2M       0.279000
      6 CAI         -4.9690     1.2490    -0.6410 ca         1 B2M      -0.083000
      7 CAH         -5.1360    -0.0890    -1.0270 ca         1 B2M      -0.078000
      8 CAT         -4.0400    -0.9590    -0.9880 ca         1 B2M      -0.017900
      9 BrAF        -4.2520    -2.7790    -1.5380 br         1 B2M      -0.085100
     10 CAM         -2.7870    -0.5010    -0.5550 ca         1 B2M      -0.053000
     11 CAZ         -2.6090     0.8440    -0.1400 ca         1 B2M      -0.055000
     12 CAX         -1.3500     1.3480     0.3090 ca         1 B2M      -0.097600
     13 CAQ         -0.1040     0.4930     0.4810 c          1 B2M       0.627700
     14 OAB         -0.1400    -0.6700     0.8650 o          1 B2M      -0.526100
     15 NAP          1.1040     1.1480     0.2480 ns         1 B2M      -0.289900
     16 NAN          2.3500     0.5620     0.4200 n2         1 B2M      -0.397300
     17 CAG          2.8510    -0.1690    -0.5300 ce         1 B2M       0.390800
     18 CAW          4.1840    -0.8370    -0.3830 ca         1 B2M      -0.206900
     19 CAL          4.9410    -0.6950     0.8050 ca         1 B2M      -0.061000
     20 CAS          6.1900    -1.3240     0.9370 ca         1 B2M       0.079000
     21 ClAD         7.1140    -1.1350     2.4220 cl         1 B2M      -0.182000
     22 CAJ          6.7030    -2.1030    -0.1100 ca         1 B2M      -0.040000
     23 CAU          5.9630    -2.2530    -1.2940 ca         1 B2M       0.019000
     24 ClAE         6.6270    -3.2380    -2.6000 cl         1 B2M      -0.183000
     25 CAV          4.7070    -1.6240    -1.4330 ca         1 B2M       0.182100
     26 OAC          3.9990    -1.7790    -2.5920 oh         1 B2M      -0.514100
     27 HAA         -1.4340     5.4390     0.6560 hc         1 B2M       0.057367
     28 HAAA        -3.1760     5.5620     0.3780 hc         1 B2M       0.057367
     29 HAAB        -2.5650     5.1220     1.9830 hc         1 B2M       0.057367
     30 HAK         -0.3790     3.1770     1.0120 ha         1 B2M       0.125000
     31 HAI         -5.8180     1.9260    -0.6850 ha         1 B2M       0.137000
     32 HAH         -6.1070    -0.4440    -1.3640 ha         1 B2M       0.134000
     33 HAM         -1.9670    -1.2100    -0.5680 ha         1 B2M       0.151000
     34 HNAP         1.0270     2.1080    -0.0760 hn         1 B2M       0.320500
     35 HAG          2.3080    -0.3190    -1.4660 h4         1 B2M       0.054800
     36 HAL          4.5690    -0.0970     1.6340 ha         1 B2M       0.142000
     37 HAJ          7.6700    -2.5890    -0.0040 ha         1 B2M       0.149000
     38 HOAC         4.5240    -2.3530    -3.1910 ho         1 B2M       0.487000
@<TRIPOS>BOND
     1     1     2 1   
     2     1    27 1   
     3     1    28 1   
     4     1    29 1   
     5     2     3 ar  
     6     2     4 ar  
     7     3    12 ar  
     8     3    30 1   
     9     4     5 ar  
    10     5     6 ar  
    11     5    11 ar  
    12     6     7 ar  
    13     6    31 1   
    14     7     8 ar  
    15     7    32 1   
    16     8     9 1   
    17     8    10 ar  
    18    10    11 ar  
    19    10    33 1   
    20    11    12 ar  
    21    12    13 1   
    22    13    14 2   
    23    13    15 1   
    24    15    16 1   
    25    15    34 1   
    26    16    17 2   
    27    17    18 1   
    28    17    35 1   
    29    18    19 ar  
    30    18    25 ar  
    31    19    20 ar  
    32    19    36 1   
    33    20    21 1   
    34    20    22 ar  
    35    22    23 ar  
    36    22    37 1   
    37    23    24 1   
    38    23    25 ar  
    39    25    26 1   
    40    26    38 1   
@<TRIPOS>SUBSTRUCTURE
     1 B2M         1 TEMP              0 ****  ****    0 ROOT
