@<TRIPOS>MOLECULE
B2M
   38    40     1     0     0
SMALL
abcg2


@<TRIPOS>ATOM
      1 CAA         -0.0360     4.1390     0.3680 c3         1 B2M      -0.151400
      2 CAR         -0.8680     2.9170     0.1490 ca         1 B2M       0.374300
      3 CAK         -0.3980     1.6670     0.6270 ca         1 B2M      -0.145000
      4 NAO         -2.0100     3.0290    -0.4710 nb         1 B2M      -0.656000
      5 CAY         -2.7720     1.9250    -0.6600 ca         1 B2M       0.279000
      6 CAI         -3.9980     2.0840    -1.3420 ca         1 B2M      -0.083000
      7 CAH         -4.8150     1.0150    -1.5790 ca         1 B2M      -0.078000
      8 CAT         -4.4210    -0.2620    -1.1370 ca         1 B2M      -0.017900
      9 BRAF        -5.5590    -1.7260    -1.4820 br         1 B2M      -0.085100
     10 CAM         -3.2450    -0.4640    -0.4680 ca         1 B2M      -0.053000
     11 CAZ         -2.3950     0.6350    -0.2120 ca         1 B2M      -0.055000
     12 CAX         -1.1420     0.5350     0.4540 ca         1 B2M      -0.097600
     13 CAQ         -0.6420    -0.7610     1.0140 c          1 B2M       0.627700
     14 OAB         -1.3230    -1.4900     1.7030 o          1 B2M      -0.526100
     15 NAP          0.6570    -0.9940     0.7000 ns         1 B2M      -0.289900
     16 NAN          1.2900    -2.0900     1.1670 n2         1 B2M      -0.397300
     17 CAG          2.5380    -2.2070     0.9480 ce         1 B2M       0.390800
     18 CAW          3.4180    -1.2150     0.2980 ca         1 B2M      -0.206900
     19 CAL          3.4640     0.0980     0.7600 ca         1 B2M      -0.061000
     20 CAS          4.2880     1.0230     0.1450 ca         1 B2M       0.079000
     21 CLAD         4.3030     2.6580     0.7060 cl         1 B2M      -0.182000
     22 CAJ          5.0950     0.6540    -0.9180 ca         1 B2M      -0.040000
     23 CAU          5.0610    -0.6560    -1.3590 ca         1 B2M       0.019000
     24 CLAE         6.0660    -1.1400    -2.6790 cl         1 B2M      -0.183000
     25 CAV          4.2280    -1.6090    -0.7710 ca         1 B2M       0.182100
     26 OAC          4.1450    -2.8770    -1.1760 oh         1 B2M      -0.514100
     27 HAA          0.9890     3.9810     0.0280 hc         1 B2M       0.057367
     28 HAAA        -0.4520     4.9950    -0.1590 hc         1 B2M       0.057367
     29 HAAB         0.0160     4.3790     1.4320 hc         1 B2M       0.057367
     30 HAK          0.5480     1.6390     1.1550 ha         1 B2M       0.125000
     31 HAI         -4.2780     3.0740    -1.6760 ha         1 B2M       0.137000
     32 HAH         -5.7510     1.1530    -2.1040 ha         1 B2M       0.134000
     33 HAM         -2.9650    -1.4540    -0.1390 ha         1 B2M       0.151000
     34 HNAP         1.1120    -0.3920     0.0220 hn         1 B2M       0.320500
     35 HAG          2.9800    -3.1320     1.3000 h4         1 B2M       0.054800
     36 HAL          2.8720     0.3870     1.6180 ha         1 B2M       0.142000
     37 HAJ          5.7440     1.3720    -1.4010 ha         1 B2M       0.149000
     38 HOAC         4.7690    -3.0670    -1.8900 ho         1 B2M       0.487000
@<TRIPOS>BOND
     1     1     2 1   
     2     1    27 1   
     3     1    28 1   
     4     1    29 1   
     5     2     3 ar  
     6     2     4 ar  
     7     3    12 ar  
     8     3    30 1   
     9     4     5 ar  
    10     5     6 ar  
    11     5    11 ar  
    12     6     7 ar  
    13     6    31 1   
    14     7     8 ar  
    15     7    32 1   
    16     8     9 1   
    17     8    10 ar  
    18    10    11 ar  
    19    10    33 1   
    20    11    12 ar  
    21    12    13 1   
    22    13    14 2   
    23    13    15 1   
    24    15    16 1   
    25    15    34 1   
    26    16    17 2   
    27    17    18 1   
    28    17    35 1   
    29    18    19 ar  
    30    18    25 ar  
    31    19    20 ar  
    32    19    36 1   
    33    20    21 1   
    34    20    22 ar  
    35    22    23 ar  
    36    22    37 1   
    37    23    24 1   
    38    23    25 ar  
    39    25    26 1   
    40    26    38 1   
@<TRIPOS>SUBSTRUCTURE
     1 B2M         1 TEMP              0 ****  ****    0 ROOT
