@<TRIPOS>MOLECULE
B2N
   19    18     1     0     0
SMALL
No Charge or Current Charge


@<TRIPOS>ATOM
      1 OE1          2.5760     0.9380     1.2530 o          1 B2N      -0.636100
      2 CD           2.0740     0.8150     0.1470 c          1 B2N       0.640100
      3 NE2          2.7220     0.1360    -0.8230 nt         1 B2N      -0.609000
      4 CG           0.7140     1.4210    -0.2380 c3         1 B2N      -0.120400
      5 CB          -1.8280     1.2520     0.0090 c3         1 B2N       0.185800
      6 N           -2.9430     0.5930     0.7030 n8         1 B2N      -0.999200
      7 CA          -0.4780     0.5530     0.2700 c3         1 B2N      -0.191700
      8 C           -0.4460    -0.8590    -0.3500 c          1 B2N       0.718000
      9 O           -0.5350    -0.9700    -1.5650 o          1 B2N      -0.739000
     10 H1           3.6190    -0.2790    -0.6220 hn         1 B2N       0.295500
     11 H2           2.2940     0.0280    -1.7300 hn         1 B2N       0.295500
     12 H3           0.6350     2.4170     0.2130 hc         1 B2N       0.027200
     13 H4           0.6370     1.5010    -1.3300 hc         1 B2N       0.027200
     14 H5          -2.0470     1.2740    -1.0660 h1         1 B2N      -0.003800
     15 H6          -1.7820     2.2860     0.3730 h1         1 B2N      -0.003800
     16 H7          -3.8140     1.0790     0.4610 hn         1 B2N       0.389500
     17 H8          -3.0710    -0.3440     0.3040 hn         1 B2N       0.389500
     18 H10         -0.3660     0.4460     1.3560 hc         1 B2N       0.071700
     19 O1          -0.2870    -1.8130     0.3970 o          1 B2N      -0.739000
@<TRIPOS>BOND
     1     1     2 2   
     2     2     3 1   
     3     2     4 1   
     4     3    10 1   
     5     3    11 1   
     6     4     7 1   
     7     4    12 1   
     8     4    13 1   
     9     5     6 1   
    10     5     7 1   
    11     5    14 1   
    12     5    15 1   
    13     6    16 1   
    14     6    17 1   
    15     7     8 1   
    16     7    18 1   
    17     8     9 1   
    18     8    19 1   
@<TRIPOS>SUBSTRUCTURE
     1 B2N         1 TEMP              0 ****  ****    0 ROOT
