@<TRIPOS>MOLECULE
B2N
   19    18     1     0     0
SMALL
abcg2


@<TRIPOS>ATOM
      1 OE1          2.1100     0.5650     1.5080 o          1 B2N      -0.636100
      2 CD           1.9790     0.6430     0.2930 c          1 B2N       0.640100
      3 NE2          2.9790     0.3680    -0.5600 nt         1 B2N      -0.609000
      4 CG           0.6970     1.1430    -0.3400 c3         1 B2N      -0.120400
      5 CB          -1.7940     1.3010    -0.0490 c3         1 B2N       0.185800
      6 N           -2.9690     0.7490     0.6150 n8         1 B2N      -0.999200
      7 CA          -0.5590     0.4440     0.1900 c3         1 B2N      -0.191700
      8 C           -0.6400    -0.9690    -0.4200 c          1 B2N       0.718000
      9 O           -1.6670    -1.2780    -1.0700 o          1 B2N      -0.739000
     10 H1           3.8880     0.1080    -0.2140 hn         1 B2N       0.295500
     11 H2           2.8700     0.4570    -1.5550 hn         1 B2N       0.295500
     12 H3           0.6420     2.2110    -0.1050 hc         1 B2N       0.027200
     13 H4           0.7460     1.0730    -1.4280 hc         1 B2N       0.027200
     14 H5          -1.9320     1.4500    -1.1290 h1         1 B2N      -0.003800
     15 H6          -1.6100     2.2930     0.3720 h1         1 B2N      -0.003800
     16 H7          -3.7470     1.3860     0.4960 hn         1 B2N       0.389500
     17 H8          -3.2260    -0.0990     0.1260 hn         1 B2N       0.389500
     18 H10         -0.4420     0.3360     1.2750 hc         1 B2N       0.071700
     19 O1           0.3490    -1.7030    -0.2420 o          1 B2N      -0.739000
@<TRIPOS>BOND
     1     1     2 2   
     2     2     3 1   
     3     2     4 1   
     4     3    10 1   
     5     3    11 1   
     6     4     7 1   
     7     4    12 1   
     8     4    13 1   
     9     5     6 1   
    10     5     7 1   
    11     5    14 1   
    12     5    15 1   
    13     6    16 1   
    14     6    17 1   
    15     7     8 1   
    16     7    18 1   
    17     8     9 1   
    18     8    19 1   
@<TRIPOS>SUBSTRUCTURE
     1 B2N         1 TEMP              0 ****  ****    0 ROOT
