@<TRIPOS>MOLECULE
B2O
   59    62     1     0     0
SMALL
No Charge or Current Charge


@<TRIPOS>ATOM
      1 C7          14.3310    17.9200     7.9190 ca         1 B2O      -0.132000
      2 C8          13.8370    18.4370     6.7120 ca         1 B2O      -0.054000
      3 C9          12.4550    18.5900     6.5330 ca         1 B2O      -0.184000
      4 O1          14.2800    20.9000    15.8260 o          1 B2O      -0.718500
      5 C1          12.7850    19.0620    15.7970 c3         1 B2O      -0.225400
      6 C5          14.0290    17.0520    10.2780 c3         1 B2O      -0.052100
      7 C6          13.4510    17.5320     8.9500 ca         1 B2O      -0.057300
      8 C4          13.7220    18.0280    11.4320 c3         1 B2O       0.097600
      9 C2          13.0430    18.2720    14.4890 c3         1 B2O      -0.065400
     10 N           12.3200    17.8880    12.0490 nx         1 B2O      -0.664000
     11 C           13.1280    20.5490    15.6220 c          1 B2O       0.713000
     12 O           12.2450    21.3010    15.2410 o          1 B2O      -0.718500
     13 C10         11.5650    18.2010     7.5520 ca         1 B2O       0.173100
     14 C11          9.7200    19.6260     6.8300 c3         1 B2O       0.167600
     15 C12          8.2730    19.8530     7.3310 c3         1 B2O      -0.035100
     16 C13          8.0560    19.5110     8.8150 ca         1 B2O      -0.071300
     17 C14          7.2890    18.3660     9.1190 ca         1 B2O      -0.103000
     18 C15          7.0790    17.9680    10.4470 ca         1 B2O      -0.127000
     19 C16          7.6390    18.7070    11.4970 ca         1 B2O      -0.083000
     20 C17          8.4070    19.8510    11.2210 ca         1 B2O      -0.040000
     21 C18          8.9810    20.5660    12.2900 ca         1 B2O      -0.089000
     22 C19          9.7630    21.7040    12.0410 ca         1 B2O      -0.106000
     23 C20          9.9580    22.1410    10.7230 ca         1 B2O      -0.097000
     24 C21          9.3850    21.4360     9.6510 ca         1 B2O      -0.115000
     25 C22          8.6160    20.2700     9.8810 ca         1 B2O      -0.026000
     26 C23         12.0550    17.6450     8.7570 ca         1 B2O      -0.131300
     27 C24         11.0910    17.2320     9.8720 c3         1 B2O      -0.036100
     28 C25         11.1720    18.1750    11.0800 c3         1 B2O       0.097600
     29 O2          10.2120    18.4060     7.4080 os         1 B2O      -0.359100
     30 H10         15.4070    17.8340     8.0550 ha         1 B2O       0.123000
     31 H11         14.5260    18.7360     5.9250 ha         1 B2O       0.125000
     32 H12         12.0810    19.0070     5.6020 ha         1 B2O       0.127000
     33 H1          11.7180    18.9390    16.0220 hc         1 B2O       0.042200
     34 H           13.4470    18.6100    16.5450 hc         1 B2O       0.042200
     35 H9          13.6670    16.0490    10.5300 hc         1 B2O       0.071700
     36 H8          15.1190    16.9620    10.2000 hc         1 B2O       0.071700
     37 H7          14.4560    17.8500    12.2210 hx         1 B2O       0.107200
     38 H6          13.8540    19.0540    11.0790 hx         1 B2O       0.107200
     39 H5          12.3900    19.7760    13.0680 hx         1 B2O       0.105200
     40 H4          11.1140    18.6900    13.6270 hx         1 B2O       0.105200
     41 H3          12.8540    17.2080    14.6750 hc         1 B2O       0.036700
     42 H2          14.1010    18.3670    14.2190 hc         1 B2O       0.036700
     43 HN          12.2180    16.8920    12.3480 hn         1 B2O       0.476000
     44 H14         10.3480    20.4670     7.1460 h1         1 B2O       0.044200
     45 H13          9.7400    19.5840     5.7330 h1         1 B2O       0.044200
     46 H16          7.9870    20.8930     7.1330 hc         1 B2O       0.063700
     47 H15          7.6060    19.2490     6.7040 hc         1 B2O       0.063700
     48 H17          6.8580    17.7700     8.3180 ha         1 B2O       0.106000
     49 H18          6.4870    17.0810    10.6610 ha         1 B2O       0.112000
     50 H19          7.4780    18.3870    12.5240 ha         1 B2O       0.126000
     51 H20          8.8260    20.2390    13.3160 ha         1 B2O       0.122000
     52 H21         10.2090    22.2500    12.8690 ha         1 B2O       0.120000
     53 H22         10.5530    23.0310    10.5300 ha         1 B2O       0.115000
     54 H23          9.5450    21.8160     8.6480 ha         1 B2O       0.106000
     55 H24         10.0530    17.2310     9.5230 hc         1 B2O       0.074700
     56 H25         11.2800    16.2020    10.1950 hc         1 B2O       0.074700
     57 H27         11.2450    19.2080    10.7290 hx         1 B2O       0.096700
     58 H26         10.2390    18.0800    11.6410 hx         1 B2O       0.096700
     59 C3          12.1610    18.7360    13.3120 c3         1 B2O       0.097600
@<TRIPOS>BOND
     1     1     2 ar  
     2     1     7 ar  
     3     1    30 1   
     4     2     3 ar  
     5     2    31 1   
     6     3    13 ar  
     7     3    32 1   
     8     4    11 1   
     9     5     9 1   
    10     5    11 1   
    11     5    33 1   
    12     5    34 1   
    13     6     7 1   
    14     6     8 1   
    15     6    35 1   
    16     6    36 1   
    17     7    26 ar  
    18     8    10 1   
    19     8    37 1   
    20     8    38 1   
    21     9    41 1   
    22     9    42 1   
    23     9    59 1   
    24    10    28 1   
    25    10    43 1   
    26    10    59 1   
    27    11    12 1   
    28    13    26 ar  
    29    13    29 1   
    30    14    15 1   
    31    14    29 1   
    32    14    44 1   
    33    14    45 1   
    34    15    16 1   
    35    15    46 1   
    36    15    47 1   
    37    16    17 ar  
    38    16    25 ar  
    39    17    18 ar  
    40    17    48 1   
    41    18    19 ar  
    42    18    49 1   
    43    19    20 ar  
    44    19    50 1   
    45    20    21 ar  
    46    20    25 ar  
    47    21    22 ar  
    48    21    51 1   
    49    22    23 ar  
    50    22    52 1   
    51    23    24 ar  
    52    23    53 1   
    53    24    25 ar  
    54    24    54 1   
    55    26    27 1   
    56    27    28 1   
    57    27    55 1   
    58    27    56 1   
    59    28    57 1   
    60    28    58 1   
    61    39    59 1   
    62    40    59 1   
@<TRIPOS>SUBSTRUCTURE
     1 B2O         1 TEMP              0 ****  ****    0 ROOT
