@<TRIPOS>MOLECULE
B2O
   59    62     1     0     0
SMALL
abcg2


@<TRIPOS>ATOM
      1 C7          14.4200    18.5200     8.1940 ca         1 B2O      -0.132000
      2 C8          13.7980    19.1530     7.1310 ca         1 B2O      -0.054000
      3 C9          12.4200    19.0910     6.9830 ca         1 B2O      -0.184000
      4 O1          13.7220    19.5270    15.7310 o          1 B2O      -0.718500
      5 C1          13.0070    17.2650    16.0270 c3         1 B2O      -0.225400
      6 C5          14.3400    17.1440    10.2850 c3         1 B2O      -0.052100
      7 C6          13.6640    17.8000     9.1150 ca         1 B2O      -0.057300
      8 C4          13.9390    17.6990    11.6470 c3         1 B2O       0.097600
      9 C2          13.4310    16.9680    14.5940 c3         1 B2O      -0.065400
     10 N           12.6600    17.1490    12.1910 nx         1 B2O      -0.664000
     11 C           13.0650    18.7490    16.4520 c          1 B2O       0.713000
     12 O           12.4650    19.0310    17.5070 o          1 B2O      -0.718500
     13 C10         11.6600    18.3810     7.9100 ca         1 B2O       0.173100
     14 C11          9.5750    19.1720     7.0320 c3         1 B2O       0.167600
     15 C12          8.1520    19.1930     7.5700 c3         1 B2O      -0.035100
     16 C13          8.0880    19.7180     8.9790 ca         1 B2O      -0.071300
     17 C14          8.0150    18.8370    10.0290 ca         1 B2O      -0.103000
     18 C15          8.0230    19.2730    11.3680 ca         1 B2O      -0.127000
     19 C16          8.1030    20.6070    11.6540 ca         1 B2O      -0.083000
     20 C17          8.1700    21.5560    10.6090 ca         1 B2O      -0.040000
     21 C18          8.2460    22.9410    10.8900 ca         1 B2O      -0.089000
     22 C19          8.3110    23.8610     9.8800 ca         1 B2O      -0.106000
     23 C20          8.2960    23.4320     8.5390 ca         1 B2O      -0.097000
     24 C21          8.2230    22.0990     8.2370 ca         1 B2O      -0.115000
     25 C22          8.1600    21.1160     9.2570 ca         1 B2O      -0.026000
     26 C23         12.2820    17.7120     8.9740 ca         1 B2O      -0.131300
     27 C24         11.4750    16.9190     9.9640 c3         1 B2O      -0.036100
     28 C25         11.4530    17.4890    11.3750 c3         1 B2O       0.097600
     29 O2          10.3190    18.2870     7.8470 os         1 B2O      -0.359100
     30 H10         15.4950    18.5830     8.3120 ha         1 B2O       0.123000
     31 H11         14.3850    19.7040     6.4080 ha         1 B2O       0.125000
     32 H12         11.9530    19.5900     6.1450 ha         1 B2O       0.127000
     33 H1          12.0010    16.8740    16.2080 hc         1 B2O       0.042200
     34 H           13.6610    16.7030    16.7020 hc         1 B2O       0.042200
     35 H9          14.1950    16.0580    10.2720 hc         1 B2O       0.071700
     36 H8          15.4170    17.2960    10.2040 hc         1 B2O       0.071700
     37 H7          14.7100    17.4480    12.3700 hx         1 B2O       0.107200
     38 H6          13.8320    18.7830    11.6260 hx         1 B2O       0.107200
     39 H5          12.4870    18.6640    13.6290 hx         1 B2O       0.105200
     40 H4          11.4330    17.2660    13.8730 hx         1 B2O       0.105200
     41 H3          13.4660    15.8840    14.4430 hc         1 B2O       0.036700
     42 H2          14.4390    17.3500    14.4320 hc         1 B2O       0.036700
     43 HN          12.7390    16.1290    12.1910 hn         1 B2O       0.476000
     44 H14         10.0060    20.1780     7.0600 h1         1 B2O       0.044200
     45 H13          9.5840    18.8350     5.9900 h1         1 B2O       0.044200
     46 H16          7.5430    19.7890     6.8870 hc         1 B2O       0.063700
     47 H15          7.7430    18.1810     7.5360 hc         1 B2O       0.063700
     48 H17          7.9560    17.7740     9.8250 ha         1 B2O       0.106000
     49 H18          7.9700    18.5440    12.1660 ha         1 B2O       0.112000
     50 H19          8.1140    20.9540    12.6800 ha         1 B2O       0.126000
     51 H20          8.2530    23.2630    11.9240 ha         1 B2O       0.122000
     52 H21          8.3710    24.9180    10.1070 ha         1 B2O       0.120000
     53 H22          8.3420    24.1620     7.7410 ha         1 B2O       0.115000
     54 H23          8.2070    21.8010     7.1970 ha         1 B2O       0.106000
     55 H24         10.4360    16.8630     9.6490 hc         1 B2O       0.074700
     56 H25         11.8240    15.8810    10.0000 hc         1 B2O       0.074700
     57 H27         11.3580    18.5750    11.3760 hx         1 B2O       0.096700
     58 H26         10.6050    17.0740    11.9180 hx         1 B2O       0.096700
     59 C3          12.4450    17.5760    13.6150 c3         1 B2O       0.097600
@<TRIPOS>BOND
     1     1     2 ar  
     2     1     7 ar  
     3     1    30 1   
     4     2     3 ar  
     5     2    31 1   
     6     3    13 ar  
     7     3    32 1   
     8     4    11 1   
     9     5     9 1   
    10     5    11 1   
    11     5    33 1   
    12     5    34 1   
    13     6     7 1   
    14     6     8 1   
    15     6    35 1   
    16     6    36 1   
    17     7    26 ar  
    18     8    10 1   
    19     8    37 1   
    20     8    38 1   
    21     9    41 1   
    22     9    42 1   
    23     9    59 1   
    24    10    28 1   
    25    10    43 1   
    26    10    59 1   
    27    11    12 1   
    28    13    26 ar  
    29    13    29 1   
    30    14    15 1   
    31    14    29 1   
    32    14    44 1   
    33    14    45 1   
    34    15    16 1   
    35    15    46 1   
    36    15    47 1   
    37    16    17 ar  
    38    16    25 ar  
    39    17    18 ar  
    40    17    48 1   
    41    18    19 ar  
    42    18    49 1   
    43    19    20 ar  
    44    19    50 1   
    45    20    21 ar  
    46    20    25 ar  
    47    21    22 ar  
    48    21    51 1   
    49    22    23 ar  
    50    22    52 1   
    51    23    24 ar  
    52    23    53 1   
    53    24    25 ar  
    54    24    54 1   
    55    26    27 1   
    56    27    28 1   
    57    27    55 1   
    58    27    56 1   
    59    28    57 1   
    60    28    58 1   
    61    39    59 1   
    62    40    59 1   
@<TRIPOS>SUBSTRUCTURE
     1 B2O         1 TEMP              0 ****  ****    0 ROOT
