@<TRIPOS>MOLECULE
B2P
   13    12     1     0     0
SMALL
abcg2


@<TRIPOS>ATOM
      1 O           -2.2120    -0.2620    -1.1530 o          1 B2P      -0.708000
      2 C           -1.5890    -0.4190    -0.0900 c          1 B2P       0.734000
      3 OXT         -1.7410    -1.3190     0.7510 o          1 B2P      -0.708000
      4 CA          -0.4980     0.6480     0.2340 c3         1 B2P       0.037000
      5 BR           1.2450    -0.2780    -0.1990 br         1 B2P      -0.391000
      6 CB          -0.5720     1.8830    -0.6380 c3         1 B2P      -0.064100
      7 CM          -0.4600     1.0050     1.7050 c3         1 B2P      -0.064100
      8 H2          -1.5140     2.3970    -0.4340 hc         1 B2P       0.027367
      9 H3           0.2370     2.5790    -0.4170 hc         1 B2P       0.027367
     10 H4          -0.5500     1.6440    -1.6980 hc         1 B2P       0.027367
     11 H5          -0.3350     0.1300     2.3370 hc         1 B2P       0.027367
     12 H6           0.3300     1.7220     1.9280 hc         1 B2P       0.027367
     13 H7          -1.4130     1.4720     1.9700 hc         1 B2P       0.027367
@<TRIPOS>BOND
     1     1     2 1   
     2     2     3 1   
     3     2     4 1   
     4     4     5 1   
     5     4     6 1   
     6     4     7 1   
     7     6     8 1   
     8     6     9 1   
     9     6    10 1   
    10     7    11 1   
    11     7    12 1   
    12     7    13 1   
@<TRIPOS>SUBSTRUCTURE
     1 B2P         1 TEMP              0 ****  ****    0 ROOT
