@<TRIPOS>MOLECULE
B2P
   13    12     1     0     0
SMALL
No Charge or Current Charge


@<TRIPOS>ATOM
      1 O           -2.5230    -0.0990    -0.8310 o          1 B2P      -0.708000
      2 C           -1.6230    -0.4130    -0.0600 c          1 B2P       0.734000
      3 OXT         -1.5510    -1.5280     0.4430 o          1 B2P      -0.708000
      4 CA          -0.4580     0.6090     0.2310 c3         1 B2P       0.037000
      5 Br           1.3490    -0.2310    -0.1070 br         1 B2P      -0.391000
      6 CB          -0.5400     1.8670    -0.6760 c3         1 B2P      -0.064100
      7 CM          -0.5040     1.0320     1.7210 c3         1 B2P      -0.064100
      8 H2          -1.4780     2.4110    -0.5120 hc         1 B2P       0.027367
      9 H3           0.2880     2.5540    -0.4640 hc         1 B2P       0.027367
     10 H4          -0.4830     1.5880    -1.7350 hc         1 B2P       0.027367
     11 H5          -0.3800     0.1620     2.3780 hc         1 B2P       0.027367
     12 H6           0.2960     1.7460     1.9500 hc         1 B2P       0.027367
     13 H7          -1.4640     1.5050     1.9590 hc         1 B2P       0.027367
@<TRIPOS>BOND
     1     1     2 1   
     2     2     3 1   
     3     2     4 1   
     4     4     5 1   
     5     4     6 1   
     6     4     7 1   
     7     6     8 1   
     8     6     9 1   
     9     6    10 1   
    10     7    11 1   
    11     7    12 1   
    12     7    13 1   
@<TRIPOS>SUBSTRUCTURE
     1 B2P         1 TEMP              0 ****  ****    0 ROOT
