@<TRIPOS>MOLECULE
B2R
   66    69     1     0     0
SMALL
abcg2


@<TRIPOS>ATOM
      1 C6         -12.9210     0.6440     0.6000 ca         1 B2R      -0.180000
      2 N1          -8.8960     0.2570     0.0460 nb         1 B2R      -0.144000
      3 C2          -8.3490    -0.9220    -0.0590 ca         1 B2R       0.263900
      4 C5         -12.4310    -0.6260     0.5030 ca         1 B2R      -0.039000
      5 C4         -10.4270    -2.0740     0.1910 ca         1 B2R      -0.022000
      6 C3          -9.0820    -2.1400     0.0060 ca         1 B2R      -0.209000
      7 C9         -11.0500    -0.8110     0.3090 ca         1 B2R      -0.171000
      8 C7         -12.0260     1.7370     0.5040 ca         1 B2R       0.130800
      9 C11        -12.5590     3.1320     0.6150 c3         1 B2R      -0.152400
     10 N8         -10.7360     1.5820     0.3250 nb         1 B2R      -0.123000
     11 C10        -10.2300     0.3360     0.2270 ca         1 B2R       0.103500
     12 N23         -6.9840    -1.0490    -0.2360 ns         1 B2R      -0.321400
     13 C24         -6.0440    -0.0550    -0.3250 c          1 B2R       0.647100
     14 O36         -6.2480     1.1310    -0.3090 o          1 B2R      -0.461500
     15 O25         -4.8420    -0.6170    -0.4360 os         1 B2R      -0.473100
     16 C26         -3.7130     0.2620    -0.5110 c3         1 B2R       0.186100
     17 C27         -2.4620    -0.5900    -0.5180 c3         1 B2R      -0.089400
     18 C28         -1.2200     0.2870    -0.5630 c3         1 B2R       0.159800
     19 N35         -0.0120    -0.5150    -0.5340 n7         1 B2R      -0.857400
     20 C34          1.1900     0.2950    -0.5490 c3         1 B2R       0.159800
     21 C33          2.4370    -0.5750    -0.4890 c3         1 B2R      -0.089400
     22 C32          3.6840     0.2830    -0.4650 c3         1 B2R       0.186100
     23 O31          4.8140    -0.5910    -0.3810 os         1 B2R      -0.473100
     24 C30          6.0150    -0.0280    -0.2630 c          1 B2R       0.647100
     25 O37          6.2180     1.1590    -0.2430 o          1 B2R      -0.461500
     26 N29          6.9550    -1.0210    -0.1690 ns         1 B2R      -0.321400
     27 C13          8.3210    -0.8940     0.0060 ca         1 B2R       0.263900
     28 C14          9.0530    -2.1130     0.0800 ca         1 B2R      -0.209000
     29 C15         10.3980    -2.0460     0.2620 ca         1 B2R      -0.022000
     30 C20         11.0220    -0.7830     0.3670 ca         1 B2R      -0.171000
     31 C16         12.4040    -0.5960     0.5550 ca         1 B2R      -0.039000
     32 C17         12.8950     0.6740     0.6400 ca         1 B2R      -0.180000
     33 C18         12.0010     1.7670     0.5370 ca         1 B2R       0.130800
     34 C22         12.5340     3.1630     0.6320 c3         1 B2R      -0.152400
     35 N19         10.7100     1.6110     0.3620 nb         1 B2R      -0.123000
     36 C21         10.2040     0.3640     0.2760 ca         1 B2R       0.103500
     37 N12          8.8680     0.2840     0.0990 nb         1 B2R      -0.144000
     38 H1         -13.9780     0.8260     0.7460 ha         1 B2R       0.125000
     39 H2         -13.0860    -1.4850     0.5710 ha         1 B2R       0.118000
     40 H3         -11.0220    -2.9770     0.2500 ha         1 B2R       0.121000
     41 H4          -8.5760    -3.0910    -0.0930 ha         1 B2R       0.124000
     42 H5         -13.0120     3.2930     1.5950 hc         1 B2R       0.056367
     43 H6         -11.7670     3.8640     0.4750 hc         1 B2R       0.056367
     44 H7         -13.3380     3.3120    -0.1270 hc         1 B2R       0.056367
     45 H8          -6.6340    -1.9940    -0.2850 hn         1 B2R       0.169000
     46 H9          -3.7740     0.8690    -1.4180 h1         1 B2R       0.052950
     47 H10         -3.7110     0.9370     0.3480 h1         1 B2R       0.052950
     48 H11         -2.4390    -1.2110     0.3830 hc         1 B2R       0.060700
     49 H12         -2.4660    -1.2620    -1.3800 hc         1 B2R       0.060700
     50 H13         -1.2210     0.8730    -1.4880 h1         1 B2R       0.034200
     51 H14         -1.2570     1.0170     0.2620 h1         1 B2R       0.034200
     52 H30         -0.0150    -1.0730     0.3120 hn         1 B2R       0.407000
     53 H16          1.1980     0.8810    -1.4740 h1         1 B2R       0.034200
     54 H17          1.2130     1.0260     0.2760 h1         1 B2R       0.034200
     55 H18          2.4060    -1.1970     0.4100 hc         1 B2R       0.060700
     56 H19          2.4550    -1.2450    -1.3520 hc         1 B2R       0.060700
     57 H20          3.7520     0.8940    -1.3690 h1         1 B2R       0.052950
     58 H21          3.6700     0.9560     0.3960 h1         1 B2R       0.052950
     59 H22          6.6040    -1.9670    -0.2170 hn         1 B2R       0.169000
     60 H23          8.5450    -3.0640    -0.0070 ha         1 B2R       0.124000
     61 H24         10.9920    -2.9480     0.3280 ha         1 B2R       0.121000
     62 H25         13.0590    -1.4560     0.6300 ha         1 B2R       0.118000
     63 H26         13.9520     0.8570     0.7820 ha         1 B2R       0.125000
     64 H27         13.3040     3.3370    -0.1210 hc         1 B2R       0.056367
     65 H28         11.7410     3.8940     0.4970 hc         1 B2R       0.056367
     66 H29         13.0010     3.3300     1.6050 hc         1 B2R       0.056367
@<TRIPOS>BOND
     1     1     4 ar  
     2     1     8 ar  
     3     1    38 1   
     4     2     3 ar  
     5     2    11 ar  
     6     3     6 ar  
     7     3    12 1   
     8     4     7 ar  
     9     4    39 1   
    10     5     6 ar  
    11     5     7 ar  
    12     5    40 1   
    13     6    41 1   
    14     7    11 ar  
    15     8     9 1   
    16     8    10 ar  
    17     9    42 1   
    18     9    43 1   
    19     9    44 1   
    20    10    11 ar  
    21    12    13 1   
    22    12    45 1   
    23    13    14 2   
    24    13    15 1   
    25    15    16 1   
    26    16    17 1   
    27    16    46 1   
    28    16    47 1   
    29    17    18 1   
    30    17    48 1   
    31    17    49 1   
    32    18    19 1   
    33    18    50 1   
    34    18    51 1   
    35    19    20 1   
    36    19    52 1   
    37    20    21 1   
    38    20    53 1   
    39    20    54 1   
    40    21    22 1   
    41    21    55 1   
    42    21    56 1   
    43    22    23 1   
    44    22    57 1   
    45    22    58 1   
    46    23    24 1   
    47    24    25 2   
    48    24    26 1   
    49    26    27 1   
    50    26    59 1   
    51    27    28 ar  
    52    27    37 ar  
    53    28    29 ar  
    54    28    60 1   
    55    29    30 ar  
    56    29    61 1   
    57    30    31 ar  
    58    30    36 ar  
    59    31    32 ar  
    60    31    62 1   
    61    32    33 ar  
    62    32    63 1   
    63    33    34 1   
    64    33    35 ar  
    65    34    64 1   
    66    34    65 1   
    67    34    66 1   
    68    35    36 ar  
    69    36    37 ar  
@<TRIPOS>SUBSTRUCTURE
     1 B2R         1 TEMP              0 ****  ****    0 ROOT
