@<TRIPOS>MOLECULE
B2R
   66    69     1     0     0
SMALL
No Charge or Current Charge


@<TRIPOS>ATOM
      1 C6         -13.2390     0.1430    -0.1090 ca         1 B2R      -0.180000
      2 N1          -9.0990     0.1680    -0.0300 nb         1 B2R      -0.144000
      3 C2          -8.4210    -0.9970     0.0000 ca         1 B2R       0.263900
      4 C5         -12.5640    -1.0830    -0.0780 ca         1 B2R      -0.039000
      5 C4         -10.4520    -2.2890    -0.0200 ca         1 B2R      -0.022000
      6 C3          -9.0530    -2.2470     0.0060 ca         1 B2R      -0.209000
      7 C9         -11.1580    -1.0730    -0.0520 ca         1 B2R      -0.171000
      8 C7         -12.4850     1.3270    -0.1140 ca         1 B2R       0.130800
      9 C11        -13.1660     2.6840    -0.1420 c3         1 B2R      -0.152400
     10 N8         -11.1360     1.3310    -0.0870 nb         1 B2R      -0.123000
     11 C10        -10.4510     0.1650    -0.0560 ca         1 B2R       0.103500
     12 N23         -7.0110    -0.9210     0.0260 ns         1 B2R      -0.321400
     13 C24         -6.1580     0.1600     0.0260 c          1 B2R       0.647100
     14 O36         -6.4800     1.3390     0.0010 o          1 B2R      -0.461500
     15 O25         -4.8730    -0.3020     0.0590 os         1 B2R      -0.473100
     16 C26         -3.8120     0.6700     0.0640 c3         1 B2R       0.186100
     17 C27         -2.4800    -0.0990     0.1020 c3         1 B2R      -0.089400
     18 C28         -1.2590     0.8390     0.1150 c3         1 B2R       0.159800
     19 N35         -0.0140     0.0500     0.1350 n7         1 B2R      -0.857400
     20 C34          1.2290     0.8420     0.1200 c3         1 B2R       0.159800
     21 C33          2.4520    -0.0930     0.1130 c3         1 B2R      -0.089400
     22 C32          3.7830     0.6800     0.0810 c3         1 B2R       0.186100
     23 O31          4.8460    -0.2890     0.0800 os         1 B2R      -0.473100
     24 C30          6.1300     0.1760     0.0530 c          1 B2R       0.647100
     25 O37          6.4490     1.3560     0.0300 o          1 B2R      -0.461500
     26 N29          6.9860    -0.9020     0.0570 ns         1 B2R      -0.321400
     27 C13          8.3960    -0.9750     0.0370 ca         1 B2R       0.263900
     28 C14          9.0320    -2.2230     0.0450 ca         1 B2R      -0.209000
     29 C15         10.4310    -2.2620     0.0250 ca         1 B2R      -0.022000
     30 C20         11.1330    -1.0440    -0.0030 ca         1 B2R      -0.171000
     31 C16         12.5390    -1.0490    -0.0230 ca         1 B2R      -0.039000
     32 C17         13.2110     0.1780    -0.0500 ca         1 B2R      -0.180000
     33 C18         12.4550     1.3600    -0.0580 ca         1 B2R       0.130800
     34 C22         13.1320     2.7190    -0.0820 c3         1 B2R      -0.152400
     35 N19         11.1050     1.3610    -0.0370 nb         1 B2R      -0.123000
     36 C21         10.4240     0.1920    -0.0100 ca         1 B2R       0.103500
     37 N12          9.0720     0.1920     0.0100 nb         1 B2R      -0.144000
     38 H1         -14.3250     0.1750    -0.1280 ha         1 B2R       0.125000
     39 H2         -13.1210    -2.0180    -0.0730 ha         1 B2R       0.118000
     40 H3         -10.9750    -3.2440    -0.0160 ha         1 B2R       0.121000
     41 H4          -8.4710    -3.1650     0.0310 ha         1 B2R       0.124000
     42 H5         -13.3170     3.0640     0.8750 hc         1 B2R       0.056367
     43 H6         -12.5690     3.4230    -0.6910 hc         1 B2R       0.056367
     44 H7         -14.1470     2.6270    -0.6280 hc         1 B2R       0.056367
     45 H8          -6.5450    -1.8170     0.0500 hn         1 B2R       0.169000
     46 H9          -3.8510     1.2950    -0.8380 h1         1 B2R       0.052950
     47 H10         -3.8860     1.3230     0.9440 h1         1 B2R       0.052950
     48 H11         -2.4600    -0.7360     0.9950 hc         1 B2R       0.060700
     49 H12         -2.4220    -0.7580    -0.7730 hc         1 B2R       0.060700
     50 H13         -1.2900     1.4780    -0.7790 h1         1 B2R       0.034200
     51 H14         -1.3150     1.4910     0.9970 h1         1 B2R       0.034200
     52 H30         -0.0150    -0.5290     0.9840 hn         1 B2R       0.407000
     53 H16          1.2620     1.4820    -0.7730 h1         1 B2R       0.034200
     54 H17          1.2790     1.4950     1.0030 h1         1 B2R       0.034200
     55 H18          2.4300    -0.7300     1.0050 hc         1 B2R       0.060700
     56 H19          2.4000    -0.7510    -0.7620 hc         1 B2R       0.060700
     57 H20          3.8230     1.3050    -0.8210 h1         1 B2R       0.052950
     58 H21          3.8510     1.3330     0.9610 h1         1 B2R       0.052950
     59 H22          6.5220    -1.8000     0.0780 hn         1 B2R       0.169000
     60 H23          8.4520    -3.1420     0.0660 ha         1 B2R       0.124000
     61 H24         10.9560    -3.2150     0.0310 ha         1 B2R       0.121000
     62 H25         13.0990    -1.9830    -0.0170 ha         1 B2R       0.118000
     63 H26         14.2980     0.2130    -0.0640 ha         1 B2R       0.125000
     64 H27         14.1160     2.6650    -0.5630 hc         1 B2R       0.056367
     65 H28         12.5360     3.4560    -0.6340 hc         1 B2R       0.056367
     66 H29         13.2780     3.0990     0.9360 hc         1 B2R       0.056367
@<TRIPOS>BOND
     1     1     4 ar  
     2     1     8 ar  
     3     1    38 1   
     4     2     3 ar  
     5     2    11 ar  
     6     3     6 ar  
     7     3    12 1   
     8     4     7 ar  
     9     4    39 1   
    10     5     6 ar  
    11     5     7 ar  
    12     5    40 1   
    13     6    41 1   
    14     7    11 ar  
    15     8     9 1   
    16     8    10 ar  
    17     9    42 1   
    18     9    43 1   
    19     9    44 1   
    20    10    11 ar  
    21    12    13 1   
    22    12    45 1   
    23    13    14 2   
    24    13    15 1   
    25    15    16 1   
    26    16    17 1   
    27    16    46 1   
    28    16    47 1   
    29    17    18 1   
    30    17    48 1   
    31    17    49 1   
    32    18    19 1   
    33    18    50 1   
    34    18    51 1   
    35    19    20 1   
    36    19    52 1   
    37    20    21 1   
    38    20    53 1   
    39    20    54 1   
    40    21    22 1   
    41    21    55 1   
    42    21    56 1   
    43    22    23 1   
    44    22    57 1   
    45    22    58 1   
    46    23    24 1   
    47    24    25 2   
    48    24    26 1   
    49    26    27 1   
    50    26    59 1   
    51    27    28 ar  
    52    27    37 ar  
    53    28    29 ar  
    54    28    60 1   
    55    29    30 ar  
    56    29    61 1   
    57    30    31 ar  
    58    30    36 ar  
    59    31    32 ar  
    60    31    62 1   
    61    32    33 ar  
    62    32    63 1   
    63    33    34 1   
    64    33    35 ar  
    65    34    64 1   
    66    34    65 1   
    67    34    66 1   
    68    35    36 ar  
    69    36    37 ar  
@<TRIPOS>SUBSTRUCTURE
     1 B2R         1 TEMP              0 ****  ****    0 ROOT
