@<TRIPOS>MOLECULE
B2T
   25    26     1     0     0
SMALL
No Charge or Current Charge


@<TRIPOS>ATOM
      1 C1           4.7050     0.7850     0.4930 c3         1 B2T       0.014900
      2 S2           3.0060     1.5190     0.5380 ss         1 B2T      -0.279300
      3 C3           1.9190     0.1470     0.1610 ca         1 B2T       0.285300
      4 N4           0.5960     0.4070     0.1310 nb         1 B2T      -0.221000
      5 N5           2.4600    -1.0660    -0.0740 nb         1 B2T      -0.305000
      6 C6           1.5690    -2.0260    -0.3430 ca         1 B2T       0.419900
      7 N7           2.0590    -3.2610    -0.5830 nv         1 B2T      -1.064900
      8 N10          0.2410    -1.8810    -0.4000 nb         1 B2T      -0.291000
      9 C11         -0.2150    -0.6320    -0.1620 cp         1 B2T       0.260500
     10 C12         -1.7020    -0.4390    -0.0720 cp         1 B2T      -0.140500
     11 C13         -2.5060    -1.4560     0.5120 ca         1 B2T      -0.062000
     12 C14         -3.8980    -1.3140     0.6290 ca         1 B2T      -0.122000
     13 C15         -4.5280    -0.1540     0.1590 ca         1 B2T      -0.085000
     14 C16         -3.7620     0.8600    -0.4360 ca         1 B2T      -0.119000
     15 C17         -2.3660     0.7290    -0.5560 ca         1 B2T       0.163000
     16 Cl18        -1.5190     2.0370    -1.3850 cl         1 B2T      -0.179000
     17 H1           4.7860    -0.0150     1.2400 h1         1 B2T       0.070367
     18 H1A          4.9060     0.3720    -0.5030 h1         1 B2T       0.070367
     19 H1B          5.4470     1.5610     0.7170 h1         1 B2T       0.070367
     20 HN7          3.0530    -3.3510    -0.7800 hn         1 B2T       0.509500
     21 HN7A         1.4480    -3.9480    -1.0190 hn         1 B2T       0.509500
     22 H13         -2.0420    -2.3630     0.8950 ha         1 B2T       0.129000
     23 H14         -4.4880    -2.1050     1.0870 ha         1 B2T       0.119000
     24 H15         -5.6070    -0.0430     0.2470 ha         1 B2T       0.118000
     25 H16         -4.2520     1.7530    -0.8150 ha         1 B2T       0.130000
@<TRIPOS>BOND
     1     1     2 1   
     2     1    17 1   
     3     1    18 1   
     4     1    19 1   
     5     2     3 1   
     6     3     4 ar  
     7     3     5 ar  
     8     4     9 ar  
     9     5     6 ar  
    10     6     7 1   
    11     6     8 ar  
    12     7    20 1   
    13     7    21 1   
    14     8     9 ar  
    15     9    10 1   
    16    10    11 ar  
    17    10    15 ar  
    18    11    12 ar  
    19    11    22 1   
    20    12    13 ar  
    21    12    23 1   
    22    13    14 ar  
    23    13    24 1   
    24    14    15 ar  
    25    14    25 1   
    26    15    16 1   
@<TRIPOS>SUBSTRUCTURE
     1 B2T         1 TEMP              0 ****  ****    0 ROOT
