@<TRIPOS>MOLECULE
B2T
   25    26     1     0     0
SMALL
abcg2


@<TRIPOS>ATOM
      1 C1           4.5590     0.7690     0.4840 c3         1 B2T       0.014900
      2 S2           2.9010     1.4650     0.6080 ss         1 B2T      -0.279300
      3 C3           1.8880     0.1080     0.1920 ca         1 B2T       0.285300
      4 N4           0.5860     0.3840     0.2310 nb         1 B2T      -0.221000
      5 N5           2.4310    -1.0470    -0.1170 nb         1 B2T      -0.305000
      6 C6           1.5510    -2.0140    -0.4160 ca         1 B2T       0.419900
      7 N7           2.0290    -3.2160    -0.7210 nv         1 B2T      -1.064900
      8 N10          0.2210    -1.8450    -0.4310 nb         1 B2T      -0.291000
      9 C11         -0.1940    -0.6350    -0.1020 cp         1 B2T       0.260500
     10 C12         -1.6590    -0.4290    -0.0570 cp         1 B2T      -0.140500
     11 C13         -2.4440    -1.4240     0.5280 ca         1 B2T      -0.062000
     12 C14         -3.8160    -1.2850     0.6450 ca         1 B2T      -0.122000
     13 C15         -4.4340    -0.1440     0.1540 ca         1 B2T      -0.085000
     14 C16         -3.6790     0.8450    -0.4560 ca         1 B2T      -0.119000
     15 C17         -2.3030     0.7030    -0.5560 ca         1 B2T       0.163000
     16 CL18        -1.4340     1.9440    -1.3930 cl         1 B2T      -0.179000
     17 H1           4.6990    -0.0440     1.1920 h1         1 B2T       0.070367
     18 H1A          4.7650     0.4220    -0.5250 h1         1 B2T       0.070367
     19 H1B          5.2410     1.5800     0.7310 h1         1 B2T       0.070367
     20 HN7          3.0200    -3.3830    -0.7380 hn         1 B2T       0.509500
     21 HN7A         1.4060    -3.9640    -0.9700 hn         1 B2T       0.509500
     22 H13         -1.9570    -2.3120     0.9090 ha         1 B2T       0.129000
     23 H14         -4.3990    -2.0650     1.1160 ha         1 B2T       0.119000
     24 H15         -5.5060    -0.0210     0.2350 ha         1 B2T       0.118000
     25 H16         -4.1600     1.7250    -0.8620 ha         1 B2T       0.130000
@<TRIPOS>BOND
     1     1     2 1   
     2     1    17 1   
     3     1    18 1   
     4     1    19 1   
     5     2     3 1   
     6     3     4 ar  
     7     3     5 ar  
     8     4     9 ar  
     9     5     6 ar  
    10     6     7 1   
    11     6     8 ar  
    12     7    20 1   
    13     7    21 1   
    14     8     9 ar  
    15     9    10 1   
    16    10    11 ar  
    17    10    15 ar  
    18    11    12 ar  
    19    11    22 1   
    20    12    13 ar  
    21    12    23 1   
    22    13    14 ar  
    23    13    24 1   
    24    14    15 ar  
    25    14    25 1   
    26    15    16 1   
@<TRIPOS>SUBSTRUCTURE
     1 B2T         1 TEMP              0 ****  ****    0 ROOT
