@<TRIPOS>MOLECULE
B2U
   45    47     1     0     0
SMALL
bcc


@<TRIPOS>ATOM
      1 CD1         -3.5070    -2.3290    -0.1560 ca         1 B2U      -0.131000
      2 CE1         -3.2860    -3.3750     0.7330 ca         1 B2U      -0.133000
      3 CZ          -3.6770    -3.2550     2.0590 ca         1 B2U      -0.149000
      4 CE2         -4.2940    -2.0850     2.4870 ca         1 B2U      -0.133000
      5 CD2         -4.5120    -1.0450     1.5950 ca         1 B2U      -0.131000
      6 CG          -4.1210    -1.1520     0.2610 ca         1 B2U      -0.055300
      7 CB          -4.3280    -0.0080    -0.6910 c3         1 B2U      -0.041100
      8 CA          -3.3560     1.1480    -0.4390 c3         1 B2U      -0.051300
      9 C           -3.6430     2.3610    -1.3700 c          1 B2U       0.929600
     10 OXT         -4.8190     2.7680    -1.3420 o          1 B2U      -0.813800
     11 O           -2.6950     2.8130    -2.0300 o          1 B2U      -0.813800
     12 N           -2.0000     0.6620    -0.5630 ns         1 B2U      -0.471900
     13 CAN         -0.9740     1.1820     0.0930 c          1 B2U       0.690700
     14 OAX         -1.1330     2.0600     0.9610 o          1 B2U      -0.656100
     15 CAA          0.3960     0.6690    -0.1790 ca         1 B2U      -0.259600
     16 CAB          0.6680    -0.2580    -1.1760 ca         1 B2U      -0.009000
     17 CAC          1.9450    -0.7440    -1.3740 ca         1 B2U      -0.058600
     18 CLA          2.2090    -1.8960    -2.6410 cl         1 B2U      -0.129400
     19 CAD          3.0010    -0.3190    -0.5780 ca         1 B2U       0.018700
     20 CAG          4.3870    -0.8640    -0.7130 c6         1 B2U      -0.076100
     21 CAH          5.0850    -0.8110     0.6270 c6         1 B2U       0.172100
     22 CAL          6.5350    -1.2270     0.5580 c3         1 B2U      -0.091100
     23 OAI          5.0510     0.5340     1.1330 os         1 B2U      -0.436900
     24 CAJ          3.9200     1.2340     1.1230 c          1 B2U       0.767200
     25 OAK          3.9160     2.3090     1.6640 o          1 B2U      -0.556500
     26 CAE          2.7640     0.6580     0.3930 ca         1 B2U      -0.274600
     27 CAF          1.4630     1.1580     0.6120 ca         1 B2U       0.292100
     28 OBB          1.2540     2.0500     1.5540 oh         1 B2U      -0.498100
     29 HD1         -3.2040    -2.4360    -1.1920 ha         1 B2U       0.129500
     30 HE1         -2.8080    -4.2830     0.3870 ha         1 B2U       0.117500
     31 HZ          -3.5060    -4.0660     2.7540 ha         1 B2U       0.116000
     32 HE2         -4.6080    -1.9840     3.5180 ha         1 B2U       0.117500
     33 HD2         -4.9940    -0.1380     1.9400 ha         1 B2U       0.129500
     34 HB1         -4.2190    -0.3610    -1.7210 hc         1 B2U       0.063200
     35 HB2         -5.3400     0.3880    -0.6010 hc         1 B2U       0.063200
     36 HAM         -3.4910     1.4900     0.5900 h1         1 B2U       0.073700
     37 H           -1.8270     0.0270    -1.3250 hn         1 B2U       0.304500
     38 HAB         -0.1150    -0.6310    -1.8210 ha         1 B2U       0.146000
     39 HAH          4.3610    -1.8970    -1.0580 hc         1 B2U       0.072700
     40 HAG          4.9460    -0.2930    -1.4620 hc         1 B2U       0.072700
     41 HAI          4.5510    -1.4530     1.3360 h1         1 B2U       0.051700
     42 HA2          7.0850    -0.6260    -0.1670 hc         1 B2U       0.045367
     43 HA3          7.0180    -1.1340     1.5300 hc         1 B2U       0.045367
     44 HA1          6.6010    -2.2710     0.2530 hc         1 B2U       0.045367
     45 H2           0.2690     2.2600     1.5190 ho         1 B2U       0.508000
@<TRIPOS>BOND
     1     1     2 ar  
     2     1     6 ar  
     3     1    29 1   
     4     2     3 ar  
     5     2    30 1   
     6     3     4 ar  
     7     3    31 1   
     8     4     5 ar  
     9     4    32 1   
    10     5     6 ar  
    11     5    33 1   
    12     6     7 1   
    13     7     8 1   
    14     7    34 1   
    15     7    35 1   
    16     8     9 1   
    17     8    12 1   
    18     8    36 1   
    19     9    10 1   
    20     9    11 1   
    21    12    13 1   
    22    12    37 1   
    23    13    14 2   
    24    13    15 1   
    25    15    16 ar  
    26    15    27 ar  
    27    16    17 ar  
    28    16    38 1   
    29    17    18 1   
    30    17    19 ar  
    31    19    20 1   
    32    19    26 ar  
    33    20    21 1   
    34    20    39 1   
    35    20    40 1   
    36    21    22 1   
    37    21    23 1   
    38    21    41 1   
    39    22    42 1   
    40    22    43 1   
    41    22    44 1   
    42    23    24 1   
    43    24    25 2   
    44    24    26 1   
    45    26    27 ar  
    46    27    28 1   
    47    28    45 1   
@<TRIPOS>SUBSTRUCTURE
     1 B2U         1 TEMP              0 ****  ****    0 ROOT
