@<TRIPOS>MOLECULE
B2U
   45    47     1     0     0
SMALL
No Charge or Current Charge


@<TRIPOS>ATOM
      1 CD1         -2.8840    -2.0570     0.2190 ca         1 B2U      -0.113000
      2 CE1         -2.4250    -2.8120     1.3120 ca         1 B2U      -0.115000
      3 CZ          -2.9030    -2.5400     2.6040 ca         1 B2U      -0.131000
      4 CE2         -3.8390    -1.5120     2.8030 ca         1 B2U      -0.115000
      5 CD2         -4.2970    -0.7550     1.7110 ca         1 B2U      -0.113000
      6 CG          -3.8220    -1.0230     0.4120 ca         1 B2U      -0.055300
      7 CB          -4.3080    -0.1910    -0.7700 c3         1 B2U      -0.041100
      8 CA          -3.5630     1.1600    -0.9190 c3         1 B2U      -0.051300
      9 C           -4.0670     1.9510    -2.1590 c          1 B2U       0.719000
     10 OXT         -4.7640     2.9380    -1.9670 o          1 B2U      -0.708500
     11 O           -3.6720     1.6100    -3.2660 o          1 B2U      -0.708500
     12 N           -2.0930     0.9690    -0.9910 ns         1 B2U      -0.404900
     13 CAN         -1.2290     1.0290     0.0820 c          1 B2U       0.623700
     14 OAX         -1.6080     1.3800     1.1940 o          1 B2U      -0.656100
     15 CAA          0.2140     0.6510    -0.1680 ca         1 B2U      -0.259600
     16 CAB          0.6560     0.2760    -1.4580 ca         1 B2U       0.009000
     17 CAC          1.9860    -0.1030    -1.6790 ca         1 B2U       0.033000
     18 ClA          2.4570    -0.5600    -3.3180 cl         1 B2U      -0.221000
     19 CAD          2.9090    -0.1090    -0.6130 ca         1 B2U       0.018700
     20 CAG          4.3510    -0.5650    -0.8100 c6         1 B2U      -0.076100
     21 CAH          4.8610    -1.2110     0.4850 c6         1 B2U       0.195300
     22 CAL          6.3580    -1.5960     0.4200 c3         1 B2U      -0.091100
     23 OAI          4.7020    -0.3050     1.5840 os         1 B2U      -0.460100
     24 CAJ          3.5280     0.3770     1.7950 c          1 B2U       0.691700
     25 OAK          3.4460     1.1640     2.7270 o          1 B2U      -0.481000
     26 CAE          2.5020     0.2990     0.6770 ca         1 B2U      -0.274600
     27 CAF          1.1510     0.6570     0.8930 ca         1 B2U       0.292100
     28 OBB          0.7250     0.9860     2.1420 oh         1 B2U      -0.537100
     29 HD1         -2.5050    -2.2720    -0.7780 ha         1 B2U       0.111500
     30 HE1         -1.6980    -3.6070     1.1570 ha         1 B2U       0.099500
     31 HZ          -2.5470    -3.1240     3.4500 ha         1 B2U       0.098000
     32 HE2         -4.2080    -1.2990     3.8040 ha         1 B2U       0.099500
     33 HD2         -5.0170     0.0440     1.8730 ha         1 B2U       0.111500
     34 HB1         -4.1980    -0.7640    -1.7000 hc         1 B2U       0.063200
     35 HB2         -5.3830     0.0080    -0.6690 hc         1 B2U       0.063200
     36 HAM         -3.7890     1.7750    -0.0390 h1         1 B2U       0.073700
     37 H           -1.6990     0.7140    -1.8860 hn         1 B2U       0.304500
     38 HAB         -0.0190     0.2620    -2.3090 ha         1 B2U       0.128000
     39 HAH          4.4350    -1.2980    -1.6220 hc         1 B2U       0.072700
     40 HAG          4.9800     0.2930    -1.0850 hc         1 B2U       0.072700
     41 HAI          4.2700    -2.1160     0.6920 h1         1 B2U       0.051700
     42 HA2          6.9880    -0.7180     0.2340 hc         1 B2U       0.045367
     43 HA3          6.6860    -2.0550     1.3610 hc         1 B2U       0.045367
     44 HA1          6.5430    -2.3180    -0.3830 hc         1 B2U       0.045367
     45 H2          -0.2440     1.1980     2.0370 ho         1 B2U       0.547000
@<TRIPOS>BOND
     1     1     2 ar  
     2     1     6 ar  
     3     1    29 1   
     4     2     3 ar  
     5     2    30 1   
     6     3     4 ar  
     7     3    31 1   
     8     4     5 ar  
     9     4    32 1   
    10     5     6 ar  
    11     5    33 1   
    12     6     7 1   
    13     7     8 1   
    14     7    34 1   
    15     7    35 1   
    16     8     9 1   
    17     8    12 1   
    18     8    36 1   
    19     9    10 1   
    20     9    11 1   
    21    12    13 1   
    22    12    37 1   
    23    13    14 2   
    24    13    15 1   
    25    15    16 ar  
    26    15    27 ar  
    27    16    17 ar  
    28    16    38 1   
    29    17    18 1   
    30    17    19 ar  
    31    19    20 1   
    32    19    26 ar  
    33    20    21 1   
    34    20    39 1   
    35    20    40 1   
    36    21    22 1   
    37    21    23 1   
    38    21    41 1   
    39    22    42 1   
    40    22    43 1   
    41    22    44 1   
    42    23    24 1   
    43    24    25 2   
    44    24    26 1   
    45    26    27 ar  
    46    27    28 1   
    47    28    45 1   
@<TRIPOS>SUBSTRUCTURE
     1 B2U         1 TEMP              0 ****  ****    0 ROOT
