@<TRIPOS>MOLECULE
B2W
   18    18     1     0     0
SMALL
abcg2


@<TRIPOS>ATOM
      1 FAI         -2.2340    -1.2140     0.2880 f          1 B2W      -0.109667
      2 CAH         -1.6670    -0.0180     0.1650 c3         1 B2W       0.261700
      3 FAJ         -2.2900     0.6100    -0.8460 f          1 B2W      -0.109667
      4 FAK         -1.9510     0.6720     1.2800 f          1 B2W      -0.109667
      5 CAF         -0.1690    -0.0880    -0.0730 ce         1 B2W       0.434600
      6 NAE          0.3100    -1.2690    -0.0890 n2         1 B2W      -0.579900
      7 CAD          1.7030    -1.4570    -0.3810 c3         1 B2W       0.092800
      8 CAC          2.6730    -0.6780     0.5250 c3         1 B2W       0.195800
      9 NAB          2.8050     0.7020     0.1480 nu         1 B2W      -0.814200
     10 CAA          1.7870     1.4920    -0.1800 c2         1 B2W       0.098000
     11 CAG          0.4540     1.1950    -0.2500 ce         1 B2W      -0.482600
     12 H1           1.9300    -2.5190    -0.2780 h1         1 B2W       0.065700
     13 H2           1.9160    -1.1870    -1.4210 h1         1 B2W       0.065700
     14 H3           2.3380    -0.7660     1.5620 h1         1 B2W       0.056200
     15 H4           3.6630    -1.1290     0.4690 h1         1 B2W       0.056200
     16 H5           3.7330     1.0780     0.0550 hn         1 B2W       0.493000
     17 H6           2.0790     2.5120    -0.3970 h4         1 B2W       0.185000
     18 H7          -0.1880     2.0450    -0.4360 ha         1 B2W       0.200000
@<TRIPOS>BOND
     1     1     2 1   
     2     2     3 1   
     3     2     4 1   
     4     2     5 1   
     5     5     6 2   
     6     5    11 1   
     7     6     7 1   
     8     7     8 1   
     9     7    12 1   
    10     7    13 1   
    11     8     9 1   
    12     8    14 1   
    13     8    15 1   
    14     9    10 1   
    15     9    16 1   
    16    10    11 2   
    17    10    17 1   
    18    11    18 1   
@<TRIPOS>SUBSTRUCTURE
     1 B2W         1 TEMP              0 ****  ****    0 ROOT
