@<TRIPOS>MOLECULE
B2W
   18    18     1     0     0
SMALL
No Charge or Current Charge


@<TRIPOS>ATOM
      1 FAI         -2.2040    -0.9710     0.9830 f          1 B2W      -0.109667
      2 CAH         -1.7060     0.0970     0.3130 c3         1 B2W       0.261700
      3 FAJ         -2.5070     0.2920    -0.7610 f          1 B2W      -0.109667
      4 FAK         -1.8660     1.1700     1.1230 f          1 B2W      -0.109667
      5 CAF         -0.2340    -0.0960    -0.1050 ce         1 B2W       0.434600
      6 NAE          0.3530    -1.2590    -0.1300 n2         1 B2W      -0.579900
      7 CAD          1.7600    -1.4280    -0.5410 c3         1 B2W       0.092800
      8 CAC          2.7350    -0.7770     0.4730 c3         1 B2W       0.195800
      9 NAB          2.5510     0.6880     0.6280 nu         1 B2W      -0.814200
     10 CAA          1.7580     1.4820    -0.2010 c2         1 B2W       0.098000
     11 CAG          0.5070     1.1100    -0.5380 ce         1 B2W      -0.482600
     12 H1           2.0040    -2.4960    -0.6120 h1         1 B2W       0.065700
     13 H2           1.9360    -0.9970    -1.5360 h1         1 B2W       0.065700
     14 H3           2.6160    -1.2690     1.4480 h1         1 B2W       0.056200
     15 H4           3.7600    -0.9790     0.1340 h1         1 B2W       0.056200
     16 H5           3.3240     1.1690     1.1010 hn         1 B2W       0.493000
     17 H6           2.1950     2.4380    -0.5140 h4         1 B2W       0.185000
     18 H7          -0.0900     1.8060    -1.1250 ha         1 B2W       0.200000
@<TRIPOS>BOND
     1     1     2 1   
     2     2     3 1   
     3     2     4 1   
     4     2     5 1   
     5     5     6 2   
     6     5    11 1   
     7     6     7 1   
     8     7     8 1   
     9     7    12 1   
    10     7    13 1   
    11     8     9 1   
    12     8    14 1   
    13     8    15 1   
    14     9    10 1   
    15     9    16 1   
    16    10    11 2   
    17    10    17 1   
    18    11    18 1   
@<TRIPOS>SUBSTRUCTURE
     1 B2W         1 TEMP              0 ****  ****    0 ROOT
