@<TRIPOS>MOLECULE
B2X
   36    39     1     0     0
SMALL
bcc


@<TRIPOS>ATOM
      1 C1          -4.4580     1.5550     0.0750 c6         1 B2X       0.174700
      2 O2          -5.3300     0.4700     0.2690 os         1 B2X      -0.387600
      3 C3          -5.1420    -0.5340    -0.6990 c6         1 B2X       0.174700
      4 C4          -3.7370    -1.0710    -0.6710 ca         1 B2X      -0.103300
      5 C5          -3.4310    -2.3450    -1.0670 ca         1 B2X      -0.114000
      6 C6          -2.0970    -2.7950    -1.0430 ca         1 B2X      -0.120000
      7 C7          -1.0860    -1.9790    -0.6110 ca         1 B2X      -0.105000
      8 C8          -1.3650    -0.6590    -0.1870 ca         1 B2X       0.005000
      9 C9          -2.7060    -0.2060    -0.2300 ca         1 B2X      -0.027000
     10 C10         -3.0210     1.1200     0.1560 ca         1 B2X      -0.085300
     11 C11         -2.0310     1.9630     0.5730 ca         1 B2X      -0.118000
     12 C12         -0.7000     1.5090     0.6110 ca         1 B2X       0.066400
     13 CL13         0.5060     2.6130     1.1830 cl         1 B2X      -0.095400
     14 C14         -0.3500     0.2350     0.2520 cp         1 B2X      -0.113500
     15 C15          1.0640    -0.2150     0.3300 cp         1 B2X       0.779500
     16 N16          1.8980     0.2610    -0.5820 nb         1 B2X      -0.747000
     17 N17          1.3670    -1.0550     1.2990 nb         1 B2X      -0.804000
     18 C18          2.6550    -1.4350     1.3340 ca         1 B2X       0.942900
     19 N19          3.0250    -2.2900     2.2780 nv         1 B2X      -0.951500
     20 N22          3.5900    -1.0010     0.4760 nb         1 B2X      -0.831000
     21 C23          3.1530    -0.1700    -0.4410 ca         1 B2X       0.809300
     22 S24          4.2530     0.4770    -1.6270 ss         1 B2X      -0.230400
     23 C25          5.8210    -0.2770    -1.1560 c3         1 B2X      -0.033000
     24 H1          -4.6400     2.0300    -0.9000 h1         1 B2X       0.059700
     25 H1A         -4.6780     2.2960     0.8440 h1         1 B2X       0.059700
     26 H3          -5.8580    -1.3290    -0.4870 h1         1 B2X       0.056700
     27 H3A         -5.3690    -0.1500    -1.7040 h1         1 B2X       0.056700
     28 H5          -4.2150    -3.0150    -1.3980 ha         1 B2X       0.133000
     29 H6          -1.8710    -3.8030    -1.3640 ha         1 B2X       0.133000
     30 H7          -0.0720    -2.3530    -0.5990 ha         1 B2X       0.139000
     31 H11         -2.2600     2.9740     0.8840 ha         1 B2X       0.150000
     32 HN19         2.3520    -2.6470     2.9350 hn         1 B2X       0.455800
     33 HN1A         3.9750    -2.6160     2.3320 hn         1 B2X       0.455800
     34 H25          6.1140     0.0210    -0.1530 h1         1 B2X       0.071033
     35 H25A         5.7720    -1.3610    -1.2230 h1         1 B2X       0.071033
     36 H25B         6.5560     0.0930    -1.8690 h1         1 B2X       0.071033
@<TRIPOS>BOND
     1     1     2 1   
     2     1    10 1   
     3     1    24 1   
     4     1    25 1   
     5     2     3 1   
     6     3     4 1   
     7     3    26 1   
     8     3    27 1   
     9     4     5 ar  
    10     4     9 ar  
    11     5     6 ar  
    12     5    28 1   
    13     6     7 ar  
    14     6    29 1   
    15     7     8 ar  
    16     7    30 1   
    17     8     9 ar  
    18     8    14 ar  
    19     9    10 ar  
    20    10    11 ar  
    21    11    12 ar  
    22    11    31 1   
    23    12    13 1   
    24    12    14 ar  
    25    14    15 1   
    26    15    16 ar  
    27    15    17 ar  
    28    16    21 ar  
    29    17    18 ar  
    30    18    19 1   
    31    18    20 ar  
    32    19    32 1   
    33    19    33 1   
    34    20    21 ar  
    35    21    22 1   
    36    22    23 1   
    37    23    34 1   
    38    23    35 1   
    39    23    36 1   
@<TRIPOS>SUBSTRUCTURE
     1 B2X         1 TEMP              0 ****  ****    0 ROOT
