@<TRIPOS>MOLECULE
B2X
   36    39     1     0     0
SMALL
No Charge or Current Charge


@<TRIPOS>ATOM
      1 C1          -4.5200     1.6080     0.0790 c6         1 B2X       0.197900
      2 O2          -5.4150     0.4880     0.2440 os         1 B2X      -0.434000
      3 C3          -5.2260    -0.5660    -0.7240 c6         1 B2X       0.197900
      4 C4          -3.7770    -1.0630    -0.6660 ca         1 B2X      -0.103300
      5 C5          -3.4710    -2.3780    -1.0550 ca         1 B2X      -0.096000
      6 C6          -2.1450    -2.8320    -1.0150 ca         1 B2X      -0.102000
      7 C7          -1.1180    -1.9770    -0.5830 ca         1 B2X      -0.087000
      8 C8          -1.4030    -0.6510    -0.1810 ca         1 B2X       0.005000
      9 C9          -2.7460    -0.1990    -0.2350 ca         1 B2X      -0.027000
     10 C10         -3.0690     1.1200     0.1430 ca         1 B2X      -0.085300
     11 C11         -2.0520     1.9890     0.5690 ca         1 B2X      -0.100000
     12 C12         -0.7210     1.5530     0.6270 ca         1 B2X       0.158000
     13 Cl13         0.4940     2.6960     1.2020 cl         1 B2X      -0.187000
     14 C14         -0.3700     0.2290     0.2580 cp         1 B2X      -0.113500
     15 C15          1.0530    -0.2090     0.3400 cp         1 B2X       0.253500
     16 N16          1.9170     0.2720    -0.5780 nb         1 B2X      -0.221000
     17 N17          1.3980    -1.0580     1.3290 nb         1 B2X      -0.278000
     18 C18          2.6900    -1.4040     1.3480 ca         1 B2X       0.416900
     19 N19          3.0820    -2.2560     2.3210 nv         1 B2X      -1.061900
     20 N22          3.6330    -0.9930     0.4940 nb         1 B2X      -0.305000
     21 C23          3.1950    -0.1460    -0.4620 ca         1 B2X       0.283300
     22 S24          4.3640     0.4770    -1.6670 ss         1 B2X      -0.278300
     23 C25          5.9810    -0.2690    -1.1650 c3         1 B2X       0.014900
     24 H1          -4.7110     2.0930    -0.8890 h1         1 B2X       0.059700
     25 H1A         -4.7120     2.3390     0.8770 h1         1 B2X       0.059700
     26 H3          -5.9200    -1.3870    -0.4980 h1         1 B2X       0.056700
     27 H3A         -5.4530    -0.1860    -1.7310 h1         1 B2X       0.056700
     28 H5          -4.2600    -3.0480    -1.3930 ha         1 B2X       0.115000
     29 H6          -1.9110    -3.8490    -1.3210 ha         1 B2X       0.115000
     30 H7          -0.1020    -2.3590    -0.5710 ha         1 B2X       0.121000
     31 H11         -2.2930     3.0090     0.8610 ha         1 B2X       0.132000
     32 HN19         2.3650    -2.7640     2.8330 hn         1 B2X       0.511000
     33 HN1A         3.9850    -2.7160     2.2280 hn         1 B2X       0.511000
     34 H25          6.2380     0.0470    -0.1460 h1         1 B2X       0.071033
     35 H25A         5.9140    -1.3630    -1.1990 h1         1 B2X       0.071033
     36 H25B         6.7690     0.0630    -1.8530 h1         1 B2X       0.071033
@<TRIPOS>BOND
     1     1     2 1   
     2     1    10 1   
     3     1    24 1   
     4     1    25 1   
     5     2     3 1   
     6     3     4 1   
     7     3    26 1   
     8     3    27 1   
     9     4     5 ar  
    10     4     9 ar  
    11     5     6 ar  
    12     5    28 1   
    13     6     7 ar  
    14     6    29 1   
    15     7     8 ar  
    16     7    30 1   
    17     8     9 ar  
    18     8    14 ar  
    19     9    10 ar  
    20    10    11 ar  
    21    11    12 ar  
    22    11    31 1   
    23    12    13 1   
    24    12    14 ar  
    25    14    15 1   
    26    15    16 ar  
    27    15    17 ar  
    28    16    21 ar  
    29    17    18 ar  
    30    18    19 1   
    31    18    20 ar  
    32    19    32 1   
    33    19    33 1   
    34    20    21 ar  
    35    21    22 1   
    36    22    23 1   
    37    23    34 1   
    38    23    35 1   
    39    23    36 1   
@<TRIPOS>SUBSTRUCTURE
     1 B2X         1 TEMP              0 ****  ****    0 ROOT
