@<TRIPOS>MOLECULE
B2Y
   27    28     1     0     0
SMALL
bcc


@<TRIPOS>ATOM
      1 N1           0.3420    -2.3950    -1.3120 n8         1 B2Y      -0.874800
      2 C4           2.7870    -0.6660     0.1600 ca         1 B2Y      -0.131000
      3 C5           3.4250     0.5670     0.1490 ca         1 B2Y      -0.128000
      4 C6           2.6670     1.7280     0.1120 ca         1 B2Y      -0.127000
      5 C7           1.2820     1.6410     0.0960 ca         1 B2Y      -0.121000
      6 C8           0.6360     0.4060     0.1130 cp         1 B2Y      -0.012000
      7 C10         -1.5610     0.8280    -0.9960 ca         1 B2Y      -0.112500
      8 C13         -2.9420    -0.0300     1.2490 ca         1 B2Y      -0.131000
      9 C2           0.7690    -2.1350     0.0570 c3         1 B2Y       0.193100
     10 C3           1.3990    -0.7690     0.1430 ca         1 B2Y      -0.070300
     11 C9          -0.8470     0.3800     0.1130 cp         1 B2Y      -0.027000
     12 C11         -2.9490     0.8470    -0.9850 ca         1 B2Y      -0.131000
     13 C12         -3.6440     0.4170     0.1370 ca         1 B2Y      -0.128000
     14 C14         -1.5540    -0.0450     1.2370 ca         1 B2Y      -0.112500
     15 HN1          1.1590    -2.4350    -1.9100 hn         1 B2Y       0.336300
     16 HN1A        -0.0780    -3.3150    -1.3580 hn         1 B2Y       0.336300
     17 H5           4.5060     0.6190     0.1640 ha         1 B2Y       0.130000
     18 H6           3.1480     2.6970     0.1030 ha         1 B2Y       0.131000
     19 H7           0.6880     2.5470     0.0790 ha         1 B2Y       0.134000
     20 H10         -1.0260     1.1620    -1.8760 ha         1 B2Y       0.131500
     21 H13         -3.4730    -0.3630     2.1310 ha         1 B2Y       0.128500
     22 H2          -0.1090    -2.1930     0.7000 h1         1 B2Y       0.035700
     23 H2A          1.4840    -2.8720     0.4440 h1         1 B2Y       0.035700
     24 H11         -3.4870     1.1980    -1.8560 ha         1 B2Y       0.128500
     25 H12         -4.7260     0.4330     0.1470 ha         1 B2Y       0.128000
     26 H14         -1.0140    -0.3820     2.1140 ha         1 B2Y       0.131500
     27 H4           3.3810    -1.5730     0.1770 ha         1 B2Y       0.125000
@<TRIPOS>BOND
     1     1     9 1   
     2     1    15 1   
     3     1    16 1   
     4     2     3 ar  
     5     2    10 ar  
     6     2    27 1   
     7     3     4 ar  
     8     3    17 1   
     9     4     5 ar  
    10     4    18 1   
    11     5     6 ar  
    12     5    19 1   
    13     6    10 ar  
    14     6    11 1   
    15     7    11 ar  
    16     7    12 ar  
    17     7    20 1   
    18     8    13 ar  
    19     8    14 ar  
    20     8    21 1   
    21     9    10 1   
    22     9    22 1   
    23     9    23 1   
    24    11    14 ar  
    25    12    13 ar  
    26    12    24 1   
    27    13    25 1   
    28    14    26 1   
@<TRIPOS>SUBSTRUCTURE
     1 B2Y         1 TEMP              0 ****  ****    0 ROOT
