@<TRIPOS>MOLECULE
B2Y
   27    28     1     0     0
SMALL
No Charge or Current Charge


@<TRIPOS>ATOM
      1 N1           0.8850    -2.7990    -1.3310 n8         1 B2Y      -0.985200
      2 C4           2.7510    -0.6950     0.0230 ca         1 B2Y      -0.113000
      3 C5           3.4120     0.5440     0.0340 ca         1 B2Y      -0.110000
      4 C6           2.6690     1.7320     0.0540 ca         1 B2Y      -0.109000
      5 C7           1.2670     1.6780     0.0730 ca         1 B2Y      -0.103000
      6 C8           0.5780     0.4410     0.0760 cp         1 B2Y      -0.012000
      7 C10         -1.6610     1.0680    -0.9120 ca         1 B2Y      -0.094500
      8 C13         -3.0230    -0.0610     1.2690 ca         1 B2Y      -0.113000
      9 C2           0.6950    -2.1530    -0.0170 c3         1 B2Y       0.193100
     10 C3           1.3400    -0.7660     0.0350 ca         1 B2Y      -0.070300
     11 C9          -0.9140     0.4550     0.1220 cp         1 B2Y      -0.027000
     12 C11         -3.0650     1.1060    -0.8650 ca         1 B2Y      -0.113000
     13 C12         -3.7470     0.5390     0.2250 ca         1 B2Y      -0.110000
     14 C14         -1.6190    -0.0980     1.2200 ca         1 B2Y      -0.094500
     15 HN1          1.8910    -2.9160    -1.4980 hn         1 B2Y       0.391500
     16 HN1A         0.5300    -3.7610    -1.2840 hn         1 B2Y       0.391500
     17 H5           4.4990     0.5810     0.0220 ha         1 B2Y       0.112000
     18 H6           3.1780     2.6940     0.0590 ha         1 B2Y       0.113000
     19 H7           0.7000     2.6060     0.0990 ha         1 B2Y       0.116000
     20 H10         -1.1410     1.5110    -1.7590 ha         1 B2Y       0.113500
     21 H13         -3.5490    -0.4940     2.1170 ha         1 B2Y       0.110500
     22 H2          -0.3810    -2.1030     0.1840 h1         1 B2Y       0.035700
     23 H2A          1.1490    -2.7900     0.7550 h1         1 B2Y       0.035700
     24 H11         -3.6240     1.5760    -1.6710 ha         1 B2Y       0.110500
     25 H12         -4.8330     0.5690     0.2630 ha         1 B2Y       0.110000
     26 H14         -1.0660    -0.5550     2.0370 ha         1 B2Y       0.113500
     27 H4           3.3400    -1.6090     0.0000 ha         1 B2Y       0.107000
@<TRIPOS>BOND
     1     1     9 1   
     2     1    15 1   
     3     1    16 1   
     4     2     3 ar  
     5     2    10 ar  
     6     2    27 1   
     7     3     4 ar  
     8     3    17 1   
     9     4     5 ar  
    10     4    18 1   
    11     5     6 ar  
    12     5    19 1   
    13     6    10 ar  
    14     6    11 1   
    15     7    11 ar  
    16     7    12 ar  
    17     7    20 1   
    18     8    13 ar  
    19     8    14 ar  
    20     8    21 1   
    21     9    10 1   
    22     9    22 1   
    23     9    23 1   
    24    11    14 ar  
    25    12    13 ar  
    26    12    24 1   
    27    13    25 1   
    28    14    26 1   
@<TRIPOS>SUBSTRUCTURE
     1 B2Y         1 TEMP              0 ****  ****    0 ROOT
