@<TRIPOS>MOLECULE
B2Z
   45    47     1     0     0
SMALL
No Charge or Current Charge


@<TRIPOS>ATOM
      1 F            5.6890    -1.2380     1.4650 f          1 B2Z      -0.177000
      2 C18          5.5890    -0.0070     0.9140 ca         1 B2Z       0.171000
      3 C17          6.7580     0.7560     0.7610 ca         1 B2Z      -0.151000
      4 C16          6.6950     2.0380     0.1920 ca         1 B2Z      -0.084000
      5 C15          5.4580     2.5540    -0.2250 ca         1 B2Z      -0.128000
      6 C14          4.2860     1.7920    -0.0730 ca         1 B2Z      -0.084000
      7 C13          4.3350     0.5020     0.5000 ca         1 B2Z      -0.117300
      8 C1           3.0450    -0.3180     0.6570 c3         1 B2Z      -0.001400
      9 C            2.0270     0.4130     1.5650 c3         1 B2Z      -0.090100
     10 C2           2.4500    -0.6810    -0.7300 c3         1 B2Z      -0.154400
     11 C3           1.2690    -1.6490    -0.6200 c          1 B2Z       0.600100
     12 O            1.4120    -2.8310    -0.3420 o          1 B2Z      -0.607100
     13 N            0.0370    -1.0960    -0.8830 ns         1 B2Z      -0.506900
     14 C4          -1.2310    -1.8190    -0.8440 c3         1 B2Z       0.161000
     15 C5          -1.4390    -2.6510    -2.1270 c3         1 B2Z      -0.104100
     16 C6          -2.3770    -0.8440    -0.5880 ca         1 B2Z      -0.099300
     17 C11         -3.0940    -0.9140     0.6340 ca         1 B2Z      -0.093000
     18 C10         -4.1290     0.0040     0.8250 ca         1 B2Z       0.003600
     19 N1          -5.0220     0.2130     1.8890 ns         1 B2Z      -0.504600
     20 C12         -5.9000     1.2400     1.6720 c          1 B2Z       0.594000
     21 O1          -6.7820     1.6580     2.3970 o          1 B2Z      -0.560000
     22 N2          -5.5280     1.6740     0.4300 ns         1 B2Z      -0.504600
     23 C9          -4.4570     0.9510    -0.1200 ca         1 B2Z       0.008600
     24 C8          -3.7760     1.0580    -1.3330 ca         1 B2Z      -0.112000
     25 C7          -2.7210     0.1430    -1.5600 ca         1 B2Z      -0.104000
     26 H17          7.7130     0.3500     1.0850 ha         1 B2Z       0.133000
     27 H16          7.6020     2.6290     0.0730 ha         1 B2Z       0.118000
     28 H15          5.4060     3.5460    -0.6670 ha         1 B2Z       0.117000
     29 H14          3.3390     2.2110    -0.4040 ha         1 B2Z       0.116000
     30 H1           3.2750    -1.2670     1.1600 hc         1 B2Z       0.086700
     31 HC1          2.4940     0.6850     2.5190 hc         1 B2Z       0.039033
     32 HC2          1.6570     1.3300     1.0910 hc         1 B2Z       0.039033
     33 HC3          1.1650    -0.2280     1.7860 hc         1 B2Z       0.039033
     34 H21C         2.1330     0.2400    -1.2340 hc         1 B2Z       0.062200
     35 H22C         3.2360    -1.1670    -1.3200 hc         1 B2Z       0.062200
     36 H            0.0160    -0.1070    -1.0970 hn         1 B2Z       0.312500
     37 H4          -1.1890    -2.5240    -0.0010 h1         1 B2Z       0.082700
     38 H51C        -0.6510    -3.4050    -2.2320 hc         1 B2Z       0.044367
     39 H52C        -2.4030    -3.1720    -2.0910 hc         1 B2Z       0.044367
     40 H53C        -1.4240    -2.0150    -3.0200 hc         1 B2Z       0.044367
     41 H11         -2.8520    -1.6510     1.3970 ha         1 B2Z       0.129000
     42 H7          -2.1660     0.2030    -2.4930 ha         1 B2Z       0.116000
     43 HA          -5.0330    -0.3330     2.7440 hn         1 B2Z       0.470000
     44 H2          -5.9940     2.4460    -0.0340 hn         1 B2Z       0.469000
     45 H8          -4.0420     1.8120    -2.0700 ha         1 B2Z       0.124000
@<TRIPOS>BOND
     1     1     2 1   
     2     2     3 ar  
     3     2     7 ar  
     4     3     4 ar  
     5     3    26 1   
     6     4     5 ar  
     7     4    27 1   
     8     5     6 ar  
     9     5    28 1   
    10     6     7 ar  
    11     6    29 1   
    12     7     8 1   
    13     8     9 1   
    14     8    10 1   
    15     8    30 1   
    16     9    31 1   
    17     9    32 1   
    18     9    33 1   
    19    10    11 1   
    20    10    34 1   
    21    10    35 1   
    22    11    12 2   
    23    11    13 1   
    24    13    14 1   
    25    13    36 1   
    26    14    15 1   
    27    14    16 1   
    28    14    37 1   
    29    15    38 1   
    30    15    39 1   
    31    15    40 1   
    32    16    17 ar  
    33    16    25 ar  
    34    17    18 ar  
    35    17    41 1   
    36    18    19 1   
    37    18    23 ar  
    38    19    20 1   
    39    19    43 1   
    40    20    21 2   
    41    20    22 1   
    42    22    23 1   
    43    22    44 1   
    44    23    24 ar  
    45    24    25 ar  
    46    24    45 1   
    47    25    42 1   
@<TRIPOS>SUBSTRUCTURE
     1 B2Z         1 TEMP              0 ****  ****    0 ROOT
