@<TRIPOS>MOLECULE
B2Z
   45    47     1     0     0
SMALL
abcg2


@<TRIPOS>ATOM
      1 F            5.4180    -1.4470     0.5990 f          1 B2Z      -0.177000
      2 C18          5.4320    -0.1050     0.4920 ca         1 B2Z       0.171000
      3 C17          6.6490     0.5130     0.2820 ca         1 B2Z      -0.151000
      4 C16          6.6820     1.8950     0.1600 ca         1 B2Z      -0.084000
      5 C15          5.5040     2.6220     0.2510 ca         1 B2Z      -0.128000
      6 C14          4.2980     1.9680     0.4670 ca         1 B2Z      -0.084000
      7 C13          4.2290     0.5820     0.5960 ca         1 B2Z      -0.117300
      8 C1           2.9290    -0.1620     0.7960 c3         1 B2Z      -0.001400
      9 C            1.8920     0.6450     1.5700 c3         1 B2Z      -0.090100
     10 C2           2.3800    -0.6020    -0.5720 c3         1 B2Z      -0.154400
     11 C3           1.1990    -1.5370    -0.4160 c          1 B2Z       0.600100
     12 O            1.3070    -2.6040     0.1770 o          1 B2Z      -0.607100
     13 N            0.0460    -1.1060    -0.9510 ns         1 B2Z      -0.506900
     14 C4          -1.1980    -1.8590    -0.9070 c3         1 B2Z       0.161000
     15 C5          -1.3770    -2.7110    -2.1600 c3         1 B2Z      -0.104100
     16 C6          -2.3500    -0.9110    -0.6600 ca         1 B2Z      -0.099300
     17 C11         -2.9480    -0.8800     0.6000 ca         1 B2Z      -0.093000
     18 C10         -3.9820     0.0110     0.8090 ca         1 B2Z       0.003600
     19 N1          -4.7640     0.2740     1.9120 ns         1 B2Z      -0.504600
     20 C12         -5.6780     1.2630     1.6400 c          1 B2Z       0.594000
     21 O1          -6.5130     1.7260     2.3960 o          1 B2Z      -0.560000
     22 N2          -5.4480     1.6150     0.3330 ns         1 B2Z      -0.504600
     23 C9          -4.4210     0.8700    -0.2030 ca         1 B2Z       0.008600
     24 C8          -3.8350     0.8520    -1.4530 ca         1 B2Z      -0.112000
     25 C7          -2.7990    -0.0520    -1.6650 ca         1 B2Z      -0.104000
     26 H17          7.5530    -0.0790     0.2160 ha         1 B2Z       0.133000
     27 H16          7.6260     2.3960    -0.0070 ha         1 B2Z       0.118000
     28 H15          5.5200     3.6990     0.1580 ha         1 B2Z       0.117000
     29 H14          3.3930     2.5560     0.5390 ha         1 B2Z       0.116000
     30 H1           3.1420    -1.0660     1.3710 hc         1 B2Z       0.086700
     31 HC1          2.2910     0.9870     2.5250 hc         1 B2Z       0.039033
     32 HC2          1.5510     1.5180     1.0120 hc         1 B2Z       0.039033
     33 HC3          1.0110     0.0380     1.7830 hc         1 B2Z       0.039033
     34 H21C         2.1210     0.2790    -1.1640 hc         1 B2Z       0.062200
     35 H22C         3.1510    -1.1430    -1.1270 hc         1 B2Z       0.062200
     36 H            0.0430    -0.2230    -1.4370 hn         1 B2Z       0.312500
     37 H4          -1.1260    -2.5290    -0.0500 h1         1 B2Z       0.082700
     38 H51C        -0.5530    -3.4200    -2.2550 hc         1 B2Z       0.044367
     39 H52C        -2.3060    -3.2790    -2.1070 hc         1 B2Z       0.044367
     40 H53C        -1.4010    -2.1040    -3.0650 hc         1 B2Z       0.044367
     41 H11         -2.6130    -1.5410     1.3890 ha         1 B2Z       0.129000
     42 H7          -2.3370    -0.0800    -2.6440 ha         1 B2Z       0.116000
     43 HA          -4.6970    -0.1810     2.8080 hn         1 B2Z       0.470000
     44 H2          -5.9750     2.3280    -0.1460 hn         1 B2Z       0.469000
     45 H8          -4.1690     1.5110    -2.2430 ha         1 B2Z       0.124000
@<TRIPOS>BOND
     1     1     2 1   
     2     2     3 ar  
     3     2     7 ar  
     4     3     4 ar  
     5     3    26 1   
     6     4     5 ar  
     7     4    27 1   
     8     5     6 ar  
     9     5    28 1   
    10     6     7 ar  
    11     6    29 1   
    12     7     8 1   
    13     8     9 1   
    14     8    10 1   
    15     8    30 1   
    16     9    31 1   
    17     9    32 1   
    18     9    33 1   
    19    10    11 1   
    20    10    34 1   
    21    10    35 1   
    22    11    12 2   
    23    11    13 1   
    24    13    14 1   
    25    13    36 1   
    26    14    15 1   
    27    14    16 1   
    28    14    37 1   
    29    15    38 1   
    30    15    39 1   
    31    15    40 1   
    32    16    17 ar  
    33    16    25 ar  
    34    17    18 ar  
    35    17    41 1   
    36    18    19 1   
    37    18    23 ar  
    38    19    20 1   
    39    19    43 1   
    40    20    21 2   
    41    20    22 1   
    42    22    23 1   
    43    22    44 1   
    44    23    24 ar  
    45    24    25 ar  
    46    24    45 1   
    47    25    42 1   
@<TRIPOS>SUBSTRUCTURE
     1 B2Z         1 TEMP              0 ****  ****    0 ROOT
