@<TRIPOS>MOLECULE
B31
   79    81     1     0     0
SMALL
abcg2


@<TRIPOS>ATOM
      1 C01         -2.6840    -0.0370    -0.4310 c6         1 B31       0.072700
      2 C02         -2.2170    -1.4860    -0.4520 c6         1 B31      -0.095400
      3 C03         -0.8410    -1.6030    -1.0970 c6         1 B31       0.169500
      4 C04          0.1640    -0.7610    -0.3090 c6         1 B31       0.179300
      5 C05         -0.2870     0.7020    -0.3170 c6         1 B31       0.162300
      6 C06         -1.6730     0.8380     0.3130 c6         1 B31       0.131300
      7 N01         -3.9930     0.0860     0.1730 ns         1 B31      -0.504900
      8 N03         -0.4290    -2.9950    -1.1180 n8         1 B31      -0.992200
      9 O04          1.4240    -0.9170    -0.9280 os         1 B31      -0.463000
     10 O05          0.6370     1.4750     0.4100 os         1 B31      -0.469000
     11 O06         -2.0300     2.1950     0.2790 oh         1 B31      -0.719000
     12 C11          2.5740    -0.7700    -0.1430 c6         1 B31       0.390300
     13 C12          3.7890    -0.8960    -1.0630 c6         1 B31       0.157500
     14 C13          3.9130    -2.3300    -1.5570 c6         1 B31       0.175300
     15 C14          3.9480    -3.2860    -0.3730 c6         1 B31       0.102300
     16 C15          2.7470    -3.0660     0.5490 c6         1 B31       0.137300
     17 C16          2.8850    -3.8310     1.8520 c3         1 B31       0.157800
     18 N12          3.6920     0.0260    -2.1790 n8         1 B31      -0.985200
     19 N16          1.6970    -3.6880     2.6760 n8         1 B31      -0.986200
     20 O11          2.6480    -1.6930     0.9030 os         1 B31      -0.486000
     21 O13          5.0950    -2.4260    -2.3220 oh         1 B31      -0.666000
     22 O14          3.9630    -4.6030    -0.8860 oh         1 B31      -0.723000
     23 C21          0.8970     2.7690    -0.0350 c5         1 B31       0.367300
     24 C22          0.9090     3.7400     1.1530 c5         1 B31       0.100300
     25 C23          2.3690     3.6720     1.6010 c5         1 B31       0.142300
     26 C24          3.0800     3.5530     0.2560 c5         1 B31       0.174300
     27 C25          4.4260     2.8670     0.3000 c3         1 B31       0.158600
     28 O21          2.1810     2.8500    -0.5980 os         1 B31      -0.454000
     29 O22          0.6620     5.0610     0.7370 oh         1 B31      -0.711000
     30 O23          2.6340     2.5280     2.3700 oh         1 B31      -0.704000
     31 O25          4.9940     2.9410    -0.9900 oh         1 B31      -0.718000
     32 C51         -5.0450     0.6920    -0.3970 c          1 B31       0.567100
     33 C52         -6.3460     0.6250     0.4010 c3         1 B31       0.093300
     34 C53         -7.0620    -0.6890     0.0780 c3         1 B31      -0.110400
     35 C54         -8.3100    -0.9020     0.9220 c3         1 B31       0.152800
     36 N54         -8.9430    -2.1680     0.5790 n8         1 B31      -0.998200
     37 O51         -5.0240     1.2300    -1.4940 o          1 B31      -0.596100
     38 O52         -7.1310     1.7550     0.1340 oh         1 B31      -0.644000
     39 H01         -2.7720     0.3270    -1.4570 h1         1 B31       0.098700
     40 H02         -2.1720    -1.8870     0.5660 hc         1 B31       0.059700
     41 H02A        -2.9380    -2.0910    -1.0060 hc         1 B31       0.059700
     42 H03         -0.9110    -1.1750    -2.1110 h1         1 B31       0.032700
     43 H04          0.1900    -1.1360     0.7230 h1         1 B31       0.073700
     44 H05         -0.3370     1.0420    -1.3620 h1         1 B31       0.069700
     45 H06         -1.6050     0.4770     1.3510 h1         1 B31       0.038700
     46 HN01        -4.1180    -0.3190     1.0890 hn         1 B31       0.312500
     47 HN03        -1.1270    -3.5370    -1.6150 hn         1 B31       0.405000
     48 HN0A         0.4200    -3.0850    -1.6610 hn         1 B31       0.405000
     49 HO06        -2.7640     2.3360     0.8850 ho         1 B31       0.510000
     50 H11          2.5850     0.2010     0.3560 h2         1 B31       0.102700
     51 H12          4.6600    -0.6940    -0.4170 h1         1 B31       0.027700
     52 H13          3.0360    -2.5640    -2.1790 h1         1 B31       0.069700
     53 H14          4.8670    -3.0810     0.1960 h1         1 B31       0.043700
     54 H15          1.8290    -3.3970     0.0490 h1         1 B31       0.089700
     55 H16          3.0090    -4.8910     1.6170 h1         1 B31       0.028700
     56 H16A         3.8140    -3.5090     2.3470 h1         1 B31       0.028700
     57 HN12         3.5670     0.9700    -1.8320 hn         1 B31       0.413500
     58 HN1A         4.5730     0.0330    -2.6750 hn         1 B31       0.413500
     59 HN16         1.8320    -4.2010     3.5380 hn         1 B31       0.396500
     60 HN1B         1.5920    -2.7200     2.9490 hn         1 B31       0.396500
     61 HO13         5.1490    -3.3220    -2.6700 ho         1 B31       0.457000
     62 HO14         4.4160    -5.1760    -0.2620 ho         1 B31       0.507000
     63 H21          0.1690     3.0640    -0.8000 h2         1 B31       0.078700
     64 H22          0.2090     3.4220     1.9350 h1         1 B31       0.060700
     65 H23          2.6680     4.5910     2.1200 h1         1 B31       0.065700
     66 H24          3.2290     4.5660    -0.1410 h1         1 B31       0.076700
     67 H25          5.0510     3.3800     1.0440 h1         1 B31       0.035200
     68 H25A         4.3130     1.8290     0.6300 h1         1 B31       0.035200
     69 HO22        -0.2340     5.1100     0.3900 ho         1 B31       0.518000
     70 HO23         2.0960     2.5630     3.1670 ho         1 B31       0.509000
     71 HO25         5.7920     2.4040    -0.9970 ho         1 B31       0.501000
     72 H52         -6.1200     0.6480     1.4720 h1         1 B31       0.072700
     73 H53         -7.3210    -0.7030    -0.9870 hc         1 B31       0.058700
     74 H53A        -6.3770    -1.5260     0.2420 hc         1 B31       0.058700
     75 H54         -8.0190    -0.9410     1.9750 h1         1 B31       0.035700
     76 H54A        -8.9750    -0.0370     0.8140 h1         1 B31       0.035700
     77 HN54        -9.7300    -2.3260     1.1950 hn         1 B31       0.394500
     78 HN5A        -9.3390    -2.1000    -0.3510 hn         1 B31       0.394500
     79 HO52        -7.1300     1.8930    -0.8210 ho         1 B31       0.467000
@<TRIPOS>BOND
     1     1     2 1   
     2     1     6 1   
     3     1     7 1   
     4     1    39 1   
     5     2     3 1   
     6     2    40 1   
     7     2    41 1   
     8     3     4 1   
     9     3     8 1   
    10     3    42 1   
    11     4     5 1   
    12     4     9 1   
    13     4    43 1   
    14     5     6 1   
    15     5    10 1   
    16     5    44 1   
    17     6    11 1   
    18     6    45 1   
    19     7    32 1   
    20     7    46 1   
    21     8    47 1   
    22     8    48 1   
    23     9    12 1   
    24    10    23 1   
    25    11    49 1   
    26    12    13 1   
    27    12    20 1   
    28    12    50 1   
    29    13    14 1   
    30    13    18 1   
    31    13    51 1   
    32    14    15 1   
    33    14    21 1   
    34    14    52 1   
    35    15    16 1   
    36    15    22 1   
    37    15    53 1   
    38    16    17 1   
    39    16    20 1   
    40    16    54 1   
    41    17    19 1   
    42    17    55 1   
    43    17    56 1   
    44    18    57 1   
    45    18    58 1   
    46    19    59 1   
    47    19    60 1   
    48    21    61 1   
    49    22    62 1   
    50    23    24 1   
    51    23    28 1   
    52    23    63 1   
    53    24    25 1   
    54    24    29 1   
    55    24    64 1   
    56    25    26 1   
    57    25    30 1   
    58    25    65 1   
    59    26    27 1   
    60    26    28 1   
    61    26    66 1   
    62    27    31 1   
    63    27    67 1   
    64    27    68 1   
    65    29    69 1   
    66    30    70 1   
    67    31    71 1   
    68    32    33 1   
    69    32    37 2   
    70    33    34 1   
    71    33    38 1   
    72    33    72 1   
    73    34    35 1   
    74    34    73 1   
    75    34    74 1   
    76    35    36 1   
    77    35    75 1   
    78    35    76 1   
    79    36    77 1   
    80    36    78 1   
    81    38    79 1   
@<TRIPOS>SUBSTRUCTURE
     1 B31         1 TEMP              0 ****  ****    0 ROOT
