@<TRIPOS>MOLECULE
B31
   79    81     1     0     0
SMALL
No Charge or Current Charge


@<TRIPOS>ATOM
      1 C01         -2.6080     0.0060    -0.7680 c6         1 B31       0.072700
      2 C02         -2.4380    -1.4270    -0.2170 c6         1 B31      -0.095400
      3 C03         -1.1030    -2.0370    -0.6930 c6         1 B31       0.169500
      4 C04          0.1240    -1.1690    -0.2540 c6         1 B31       0.179300
      5 C05         -0.0340     0.3250    -0.7240 c6         1 B31       0.162300
      6 C06         -1.4360     0.9070    -0.2680 c6         1 B31       0.131300
      7 N01         -3.9120     0.5600    -0.3580 ns         1 B31      -0.504900
      8 N03         -0.9890    -3.4300    -0.2010 n8         1 B31      -0.992200
      9 O04          1.3350    -1.7870    -0.7800 os         1 B31      -0.463000
     10 O05          1.1610     1.0820    -0.3260 os         1 B31      -0.469000
     11 O06         -1.6770     2.2650    -0.7040 oh         1 B31      -0.719000
     12 C11          2.5550    -1.5020    -0.0550 c6         1 B31       0.390300
     13 C12          3.7490    -1.1090    -1.0110 c6         1 B31       0.157500
     14 C13          4.2220    -2.3640    -1.8180 c6         1 B31       0.175300
     15 C14          4.5180    -3.5590    -0.8640 c6         1 B31       0.102300
     16 C15          3.2560    -3.8460     0.0090 c6         1 B31       0.137300
     17 C16          3.4880    -4.9900     1.0510 c3         1 B31       0.157800
     18 N12          3.4470     0.0610    -1.9070 n8         1 B31      -0.985200
     19 N16          2.3250    -5.2650     1.9280 n8         1 B31      -0.986200
     20 O11          2.8900    -2.6520     0.7540 os         1 B31      -0.486000
     21 O13          5.4020    -2.0910    -2.6020 oh         1 B31      -0.666000
     22 O14          4.9220    -4.7110    -1.6410 oh         1 B31      -0.723000
     23 C21          1.1480     2.5080    -0.0920 c5         1 B31       0.367300
     24 C22          0.5680     2.8290     1.3510 c5         1 B31       0.100300
     25 C23          1.7890     3.4940     2.0810 c5         1 B31       0.142300
     26 C24          2.5660     4.0540     0.8490 c5         1 B31       0.174300
     27 C25          4.0320     4.4950     1.1260 c3         1 B31       0.158600
     28 O21          2.5140     2.9500    -0.0810 os         1 B31      -0.454000
     29 O22         -0.5670     3.7100     1.2660 oh         1 B31      -0.711000
     30 O23          2.5610     2.5380     2.8360 oh         1 B31      -0.704000
     31 O25          4.5910     5.2130     0.0060 oh         1 B31      -0.718000
     32 C51         -5.1230     0.3010    -0.9700 c          1 B31       0.567100
     33 C52         -6.3660     1.0050    -0.3400 c3         1 B31       0.093300
     34 C53         -7.2130     0.0080     0.4900 c3         1 B31      -0.110400
     35 C54         -8.3370     0.6810     1.3020 c3         1 B31       0.152800
     36 N54         -9.0720    -0.3060     2.1150 n8         1 B31      -0.998200
     37 O51         -5.2020    -0.4000    -1.9720 o          1 B31      -0.596100
     38 O52         -7.2020     1.6180    -1.3510 oh         1 B31      -0.644000
     39 H01         -2.5810    -0.0380    -1.8680 h1         1 B31       0.098700
     40 H02         -2.4830    -1.4190     0.8810 hc         1 B31       0.059700
     41 H02A        -3.2720    -2.0550    -0.5600 hc         1 B31       0.059700
     42 H03         -1.1030    -2.0860    -1.7930 h1         1 B31       0.032700
     43 H04          0.1660    -1.1870     0.8450 h1         1 B31       0.073700
     44 H05         -0.0440     0.3180    -1.8240 h1         1 B31       0.069700
     45 H06         -1.4580     0.8800     0.8310 h1         1 B31       0.038700
     46 HN01        -3.9350     1.1730     0.4500 hn         1 B31       0.312500
     47 HN03        -1.4580    -4.0570    -0.8640 hn         1 B31       0.405000
     48 HN0A         0.0000    -3.6990    -0.2720 hn         1 B31       0.405000
     49 HO06        -2.3020     2.2200    -1.4670 ho         1 B31       0.510000
     50 H11          2.3950    -0.6530     0.6260 h2         1 B31       0.102700
     51 H12          4.5730    -0.7850    -0.3590 h1         1 B31       0.027700
     52 H13          3.3970    -2.6630    -2.4840 h1         1 B31       0.069700
     53 H14          5.3360    -3.2620    -0.1900 h1         1 B31       0.043700
     54 H15          2.4190    -4.1390    -0.6420 h1         1 B31       0.089700
     55 H16          3.7480    -5.9190     0.5260 h1         1 B31       0.028700
     56 H16A         4.3380    -4.7090     1.6880 h1         1 B31       0.028700
     57 HN12         2.8730     0.7350    -1.3770 hn         1 B31       0.413500
     58 HN1A         4.3210     0.5630    -2.0950 hn         1 B31       0.413500
     59 HN16         2.6290    -5.8470     2.7170 hn         1 B31       0.396500
     60 HN1B         2.0520    -4.3770     2.3680 hn         1 B31       0.396500
     61 HO13         5.7530    -2.9840    -2.8240 ho         1 B31       0.457000
     62 HO14         5.4210    -5.3160    -1.0420 ho         1 B31       0.507000
     63 H21          0.6070     3.0370    -0.8860 h2         1 B31       0.078700
     64 H22          0.2790     1.9030     1.8670 h1         1 B31       0.060700
     65 H23          1.4620     4.3150     2.7350 h1         1 B31       0.065700
     66 H24          2.0240     4.9090     0.4190 h1         1 B31       0.076700
     67 H25          4.0380     5.1340     2.0190 h1         1 B31       0.035200
     68 H25A         4.6360     3.6050     1.3530 h1         1 B31       0.035200
     69 HO22        -1.1510     3.2990     0.5640 ho         1 B31       0.518000
     70 HO23         2.0430     2.3190     3.6450 ho         1 B31       0.509000
     71 HO25         5.5350     5.3960     0.2240 ho         1 B31       0.501000
     72 H52         -5.9860     1.7780     0.3420 h1         1 B31       0.072700
     73 H53         -7.6420    -0.7510    -0.1770 hc         1 B31       0.058700
     74 H53A        -6.5470    -0.5210     1.1840 hc         1 B31       0.058700
     75 H54         -7.9060     1.4380     1.9730 h1         1 B31       0.035700
     76 H54A        -9.0450     1.1800     0.6250 h1         1 B31       0.035700
     77 HN54        -9.8440     0.1680     2.6000 hn         1 B31       0.394500
     78 HN5A        -9.5520    -0.9630     1.4880 hn         1 B31       0.394500
     79 HO52        -7.2310     0.9930    -2.1130 ho         1 B31       0.467000
@<TRIPOS>BOND
     1     1     2 1   
     2     1     6 1   
     3     1     7 1   
     4     1    39 1   
     5     2     3 1   
     6     2    40 1   
     7     2    41 1   
     8     3     4 1   
     9     3     8 1   
    10     3    42 1   
    11     4     5 1   
    12     4     9 1   
    13     4    43 1   
    14     5     6 1   
    15     5    10 1   
    16     5    44 1   
    17     6    11 1   
    18     6    45 1   
    19     7    32 1   
    20     7    46 1   
    21     8    47 1   
    22     8    48 1   
    23     9    12 1   
    24    10    23 1   
    25    11    49 1   
    26    12    13 1   
    27    12    20 1   
    28    12    50 1   
    29    13    14 1   
    30    13    18 1   
    31    13    51 1   
    32    14    15 1   
    33    14    21 1   
    34    14    52 1   
    35    15    16 1   
    36    15    22 1   
    37    15    53 1   
    38    16    17 1   
    39    16    20 1   
    40    16    54 1   
    41    17    19 1   
    42    17    55 1   
    43    17    56 1   
    44    18    57 1   
    45    18    58 1   
    46    19    59 1   
    47    19    60 1   
    48    21    61 1   
    49    22    62 1   
    50    23    24 1   
    51    23    28 1   
    52    23    63 1   
    53    24    25 1   
    54    24    29 1   
    55    24    64 1   
    56    25    26 1   
    57    25    30 1   
    58    25    65 1   
    59    26    27 1   
    60    26    28 1   
    61    26    66 1   
    62    27    31 1   
    63    27    67 1   
    64    27    68 1   
    65    29    69 1   
    66    30    70 1   
    67    31    71 1   
    68    32    33 1   
    69    32    37 2   
    70    33    34 1   
    71    33    38 1   
    72    33    72 1   
    73    34    35 1   
    74    34    73 1   
    75    34    74 1   
    76    35    36 1   
    77    35    75 1   
    78    35    76 1   
    79    36    77 1   
    80    36    78 1   
    81    38    79 1   
@<TRIPOS>SUBSTRUCTURE
     1 B31         1 TEMP              0 ****  ****    0 ROOT
