@<TRIPOS>MOLECULE
B32
   70    72     1     0     0
SMALL
No Charge or Current Charge


@<TRIPOS>ATOM
      1 CAR         12.4190     1.5190    -0.6970 c3         1 B32      -0.075400
      2 CAS         11.2060     1.4060     0.2540 c3         1 B32      -0.074400
      3 CAT          9.9410     0.8610    -0.4440 c3         1 B32      -0.074400
      4 CAU          8.7280     0.7490     0.5060 c3         1 B32      -0.074400
      5 CAV          7.4620     0.2030    -0.1910 c3         1 B32      -0.074400
      6 CAW          6.2500     0.0910     0.7590 c3         1 B32      -0.073400
      7 CAX          4.9830    -0.4550     0.0630 c3         1 B32      -0.079400
      8 CAY          3.7770    -0.5660     1.0160 c3         1 B32       0.162800
      9 NAZ          2.6060    -1.0960     0.2950 n7         1 B32      -0.871400
     10 CBA          1.3860    -1.2610     1.1160 c3         1 B32       0.173800
     11 CBB          0.2390    -1.8700     0.2830 c3         1 B32       0.052600
     12 SD          -1.2880    -2.0820     1.3100 ss         1 B32      -0.397000
     13 C5          -2.4240    -2.8210     0.0450 c3         1 B32       0.024600
     14 C4          -3.8540    -3.0850     0.5930 c5         1 B32       0.178300
     15 O4          -4.4850    -1.8340     0.9640 os         1 B32      -0.430000
     16 C3          -4.8400    -3.7080    -0.4450 c5         1 B32       0.112300
     17 O3          -6.0200    -4.2620     0.1490 oh         1 B32      -0.702000
     18 C2          -5.2090    -2.4450    -1.2760 c5         1 B32       0.078300
     19 O2          -6.4590    -2.6410    -1.9700 oh         1 B32      -0.688000
     20 C1          -5.2590    -1.3360    -0.1540 c5         1 B32       0.320300
     21 N9          -4.8070     0.0170    -0.4910 na         1 B32      -0.297300
     22 C8          -3.8520     0.3650    -1.4540 cc         1 B32       0.408700
     23 N7          -3.6890     1.7000    -1.5280 nd         1 B32      -0.559100
     24 C7          -4.5790     2.1850    -0.5650 ca         1 B32      -0.100600
     25 C9          -5.2620     1.1780     0.0680 ca         1 B32       0.133500
     26 N3          -6.1790     1.4210     1.0250 nb         1 B32      -0.212000
     27 C10         -6.3810     2.7270     1.3250 ca         1 B32       0.178900
     28 N1          -5.7620     3.7940     0.7640 nb         1 B32      -0.303000
     29 C6          -4.8540     3.5160    -0.1850 ca         1 B32       0.448900
     30 N6          -4.2340     4.5840    -0.7540 nv         1 B32      -1.066900
     31 CAP         14.8940     2.1760    -0.9470 c3         1 B32      -0.088100
     32 CAQ         13.6840     2.0640     0.0010 c3         1 B32      -0.074400
     33 HAR         12.6380     0.5300    -1.1190 hc         1 B32       0.036700
     34 HARA        12.1590     2.1760    -1.5360 hc         1 B32       0.036700
     35 HAS         11.4660     0.7490     1.0930 hc         1 B32       0.036700
     36 HASA        10.9870     2.3950     0.6760 hc         1 B32       0.036700
     37 HAT          9.6810     1.5180    -1.2830 hc         1 B32       0.037200
     38 HATA        10.1600    -0.1280    -0.8660 hc         1 B32       0.037200
     39 HAU          8.9880     0.0920     1.3460 hc         1 B32       0.037700
     40 HAUA         8.5090     1.7370     0.9290 hc         1 B32       0.037700
     41 HAV          7.2020     0.8600    -1.0310 hc         1 B32       0.038200
     42 HAVA         7.6820    -0.7850    -0.6130 hc         1 B32       0.038200
     43 HAW          6.5100    -0.5660     1.5990 hc         1 B32       0.038200
     44 HAWA         6.0300     1.0790     1.1820 hc         1 B32       0.038200
     45 HAX          4.7230     0.2020    -0.7760 hc         1 B32       0.044700
     46 HAXA         5.2020    -1.4450    -0.3570 hc         1 B32       0.044700
     47 HAY          4.0410    -1.2280     1.8530 h1         1 B32       0.030700
     48 HAYA         3.5540     0.4270     1.4310 h1         1 B32       0.030700
     49 HNAZ         2.3900    -0.4530    -0.4760 hn         1 B32       0.407000
     50 HBA          1.5870    -1.9230     1.9700 h1         1 B32       0.044200
     51 HBAA         1.0590    -0.2920     1.5170 h1         1 B32       0.044200
     52 HBB          0.0090    -1.2130    -0.5670 h1         1 B32       0.063200
     53 HBBA         0.5470    -2.8490    -0.1070 h1         1 B32       0.063200
     54 H5          -2.4660    -2.1500    -0.8200 h1         1 B32       0.063700
     55 H5'A        -1.9940    -3.7740    -0.2910 h1         1 B32       0.063700
     56 H4          -3.7650    -3.7220     1.4840 h1         1 B32       0.110700
     57 H3          -4.3400    -4.4630    -1.0690 h1         1 B32       0.055700
     58 HO3         -6.7350    -3.9970    -0.4840 ho         1 B32       0.525000
     59 H2          -4.4090    -2.2420    -2.0000 h1         1 B32       0.055700
     60 HO2         -6.5380    -1.9380    -2.6600 ho         1 B32       0.514000
     61 H1          -6.3000    -1.2230     0.1770 h2         1 B32       0.123700
     62 H8          -3.3230    -0.3680    -2.0520 h5         1 B32       0.082800
     63 H6          -7.1190     2.9410     2.0970 h5         1 B32       0.045100
     64 HN6         -3.7190     4.4060    -1.6130 hn         1 B32       0.505500
     65 HN6A        -4.6730     5.4970    -0.6670 hn         1 B32       0.505500
     66 HAP         15.1570     1.1950    -1.3600 hc         1 B32       0.031367
     67 HAPA        14.6730     2.8550    -1.7800 hc         1 B32       0.031367
     68 HAPB        15.7660     2.5670    -0.4090 hc         1 B32       0.031367
     69 HAQ         13.4700     3.0530     0.4230 hc         1 B32       0.036700
     70 HAQA        13.9490     1.4080     0.8390 hc         1 B32       0.036700
@<TRIPOS>BOND
     1     1     2 1   
     2     1    32 1   
     3     1    33 1   
     4     1    34 1   
     5     2     3 1   
     6     2    35 1   
     7     2    36 1   
     8     3     4 1   
     9     3    37 1   
    10     3    38 1   
    11     4     5 1   
    12     4    39 1   
    13     4    40 1   
    14     5     6 1   
    15     5    41 1   
    16     5    42 1   
    17     6     7 1   
    18     6    43 1   
    19     6    44 1   
    20     7     8 1   
    21     7    45 1   
    22     7    46 1   
    23     8     9 1   
    24     8    47 1   
    25     8    48 1   
    26     9    10 1   
    27     9    49 1   
    28    10    11 1   
    29    10    50 1   
    30    10    51 1   
    31    11    12 1   
    32    11    52 1   
    33    11    53 1   
    34    12    13 1   
    35    13    14 1   
    36    13    54 1   
    37    13    55 1   
    38    14    15 1   
    39    14    16 1   
    40    14    56 1   
    41    15    20 1   
    42    16    17 1   
    43    16    18 1   
    44    16    57 1   
    45    17    58 1   
    46    18    19 1   
    47    18    20 1   
    48    18    59 1   
    49    19    60 1   
    50    20    21 1   
    51    20    61 1   
    52    21    22 1   
    53    21    25 1   
    54    22    23 2   
    55    22    62 1   
    56    23    24 1   
    57    24    25 ar  
    58    24    29 ar  
    59    25    26 ar  
    60    26    27 ar  
    61    27    28 ar  
    62    27    63 1   
    63    28    29 ar  
    64    29    30 1   
    65    30    64 1   
    66    30    65 1   
    67    31    32 1   
    68    31    66 1   
    69    31    67 1   
    70    31    68 1   
    71    32    69 1   
    72    32    70 1   
@<TRIPOS>SUBSTRUCTURE
     1 B32         1 TEMP              0 ****  ****    0 ROOT
