@<TRIPOS>MOLECULE
B32
   70    72     1     0     0
SMALL
bcc


@<TRIPOS>ATOM
      1 CAR         12.7950     0.9090    -0.5910 c3         1 B32      -0.075400
      2 CAS         11.5650     0.8800     0.3070 c3         1 B32      -0.074400
      3 CAT         10.2610     0.7290    -0.4660 c3         1 B32      -0.074400
      4 CAU          9.0280     0.6890     0.4280 c3         1 B32      -0.074400
      5 CAV          7.7300     0.5050    -0.3480 c3         1 B32      -0.074400
      6 CAW          6.4970     0.4470     0.5440 c3         1 B32      -0.073400
      7 CAX          5.2110     0.2000    -0.2340 c3         1 B32      -0.079400
      8 CAY          3.9850     0.1230     0.6630 c3         1 B32       0.162800
      9 NAZ          2.8000    -0.2370    -0.0950 n7         1 B32      -0.816200
     10 CBA          1.6080    -0.3580     0.7200 c3         1 B32       0.173800
     11 CBB          0.5030    -1.0280    -0.0820 c3         1 B32       0.004700
     12 SD          -0.9940    -1.1720     0.9350 ss         1 B32      -0.301200
     13 C5          -1.9840    -2.2240    -0.1590 c3         1 B32      -0.023300
     14 C4          -3.2060    -2.7460     0.5790 c5         1 B32       0.155100
     15 O4          -3.9410    -1.6800     1.1880 os         1 B32      -0.383600
     16 C3          -4.1940    -3.4240    -0.3600 c5         1 B32       0.089100
     17 O3          -4.9840    -4.3110     0.3840 oh         1 B32      -0.579800
     18 C2          -5.0160    -2.2190    -0.8290 c5         1 B32       0.055100
     19 O2          -6.3030    -2.5290    -1.2720 oh         1 B32      -0.565800
     20 C1          -5.0900    -1.3810     0.4530 c5         1 B32       0.267800
     21 N9          -5.1340     0.0450     0.2020 na         1 B32      -0.268000
     22 C8          -4.0770     0.8790    -0.0480 cc         1 B32       0.408700
     23 N7          -4.4380     2.1030    -0.2990 nd         1 B32      -0.559100
     24 C7          -5.8060     2.0810    -0.2170 ca         1 B32      -0.231200
     25 C9          -6.2600     0.8080     0.0970 ca         1 B32       0.461800
     26 N3          -7.5290     0.4400     0.2610 nb         1 B32      -0.738000
     27 C10         -8.3580     1.4520     0.0830 ca         1 B32       0.704900
     28 N1          -8.0710     2.7150    -0.2270 nb         1 B32      -0.829000
     29 C6          -6.7910     3.0710    -0.3840 ca         1 B32       0.777200
     30 N6          -6.4980     4.3380    -0.6830 nv         1 B32      -0.956500
     31 CAP         15.3220     1.0610    -0.7360 c3         1 B32      -0.088100
     32 CAQ         14.1040     1.0380     0.1770 c3         1 B32      -0.074400
     33 HAR         12.8210    -0.0040    -1.1990 hc         1 B32       0.036700
     34 HARA        12.7060     1.7400    -1.3000 hc         1 B32       0.036700
     35 HAS         11.6590     0.0550     1.0230 hc         1 B32       0.036700
     36 HASA        11.5300     1.7970     0.9060 hc         1 B32       0.036700
     37 HAT         10.1640     1.5540    -1.1810 hc         1 B32       0.037200
     38 HATA        10.3000    -0.1870    -1.0670 hc         1 B32       0.037200
     39 HAU          9.1340    -0.1260     1.1530 hc         1 B32       0.037700
     40 HAUA         8.9750     1.6120     1.0170 hc         1 B32       0.037700
     41 HAV          7.6180     1.3210    -1.0710 hc         1 B32       0.038200
     42 HAVA         7.7910    -0.4160    -0.9390 hc         1 B32       0.038200
     43 HAW          6.6270    -0.3490     1.2850 hc         1 B32       0.038200
     44 HAWA         6.4130     1.3800     1.1120 hc         1 B32       0.038200
     45 HAX          5.0730     0.9960    -0.9750 hc         1 B32       0.044700
     46 HAXA         5.2940    -0.7350    -0.7960 hc         1 B32       0.044700
     47 HAY          4.1450    -0.6500     1.4210 h1         1 B32       0.030700
     48 HAYA         3.8730     1.0720     1.2120 h1         1 B32       0.030700
     49 HNAZ         2.6420     0.4600    -0.8140 hn         1 B32       0.351800
     50 HBA          1.8480    -0.9840     1.5840 h1         1 B32       0.044200
     51 HBAA         1.2560     0.6050     1.1200 h1         1 B32       0.044200
     52 HBB          0.2710    -0.4530    -0.9810 h1         1 B32       0.063200
     53 HBBA         0.8250    -2.0240    -0.3900 h1         1 B32       0.063200
     54 H5          -2.2620    -1.6660    -1.0570 h1         1 B32       0.063700
     55 H5'A        -1.3820    -3.0780    -0.4750 h1         1 B32       0.063700
     56 H4          -2.8820    -3.4210     1.3750 h1         1 B32       0.110700
     57 H3          -3.6860    -3.9250    -1.1950 h1         1 B32       0.055700
     58 HO3         -5.8130    -4.4410    -0.0930 ho         1 B32       0.426000
     59 H2          -4.4510    -1.6700    -1.5930 h1         1 B32       0.055700
     60 HO2         -6.2610    -2.7610    -2.2050 ho         1 B32       0.415000
     61 H1          -5.9970    -1.6260     1.0140 h2         1 B32       0.123700
     62 H8          -3.0540     0.5320    -0.0010 h5         1 B32       0.082800
     63 H6          -9.4140     1.2320     0.2010 h5         1 B32       0.045100
     64 HN6         -5.5510     4.6250    -0.8540 hn         1 B32       0.450300
     65 HN6A        -7.2350     5.0010    -0.8520 hn         1 B32       0.450300
     66 HAP         15.3810     0.1500    -1.3340 hc         1 B32       0.031367
     67 HAPA        15.2780     1.9050    -1.4270 hc         1 B32       0.031367
     68 HAPB        16.2510     1.1450    -0.1700 hc         1 B32       0.031367
     69 HAQ         14.0810     1.9490     0.7840 hc         1 B32       0.036700
     70 HAQA        14.1910     0.2060     0.8840 hc         1 B32       0.036700
@<TRIPOS>BOND
     1     1     2 1   
     2     1    32 1   
     3     1    33 1   
     4     1    34 1   
     5     2     3 1   
     6     2    35 1   
     7     2    36 1   
     8     3     4 1   
     9     3    37 1   
    10     3    38 1   
    11     4     5 1   
    12     4    39 1   
    13     4    40 1   
    14     5     6 1   
    15     5    41 1   
    16     5    42 1   
    17     6     7 1   
    18     6    43 1   
    19     6    44 1   
    20     7     8 1   
    21     7    45 1   
    22     7    46 1   
    23     8     9 1   
    24     8    47 1   
    25     8    48 1   
    26     9    10 1   
    27     9    49 1   
    28    10    11 1   
    29    10    50 1   
    30    10    51 1   
    31    11    12 1   
    32    11    52 1   
    33    11    53 1   
    34    12    13 1   
    35    13    14 1   
    36    13    54 1   
    37    13    55 1   
    38    14    15 1   
    39    14    16 1   
    40    14    56 1   
    41    15    20 1   
    42    16    17 1   
    43    16    18 1   
    44    16    57 1   
    45    17    58 1   
    46    18    19 1   
    47    18    20 1   
    48    18    59 1   
    49    19    60 1   
    50    20    21 1   
    51    20    61 1   
    52    21    22 1   
    53    21    25 1   
    54    22    23 2   
    55    22    62 1   
    56    23    24 1   
    57    24    25 ar  
    58    24    29 ar  
    59    25    26 ar  
    60    26    27 ar  
    61    27    28 ar  
    62    27    63 1   
    63    28    29 ar  
    64    29    30 1   
    65    30    64 1   
    66    30    65 1   
    67    31    32 1   
    68    31    66 1   
    69    31    67 1   
    70    31    68 1   
    71    32    69 1   
    72    32    70 1   
@<TRIPOS>SUBSTRUCTURE
     1 B32         1 TEMP              0 ****  ****    0 ROOT
