@<TRIPOS>MOLECULE
B33
   41    40     1     0     0
SMALL
No Charge or Current Charge


@<TRIPOS>ATOM
      1 C10          3.1710     0.6340    -0.0420 c3         1 B33       0.160800
      2 C12          5.6420     0.3560     0.0040 c3         1 B33       0.158800
      3 C13          6.7560    -0.7090     0.0610 c3         1 B33      -0.079400
      4 C1          -7.9940    -0.7630     0.1080 c3         1 B33      -0.092100
      5 C2          -6.8950     0.3100     0.0470 c3         1 B33       0.159800
      6 N3          -5.5670    -0.3270     0.0330 n7         1 B33      -0.860400
      7 C4          -4.4270     0.6060    -0.0160 c3         1 B33       0.160800
      8 C5          -3.0960    -0.1710    -0.0100 c3         1 B33      -0.083400
      9 C6          -1.8720     0.7630    -0.0540 c3         1 B33       0.160800
     10 N7          -0.6250    -0.0230    -0.0400 n7         1 B33      -0.857400
     11 C8           0.6160     0.7720    -0.0620 c3         1 B33       0.160800
     12 C9           1.8470    -0.1530    -0.0270 c3         1 B33      -0.083400
     13 N11          4.3190    -0.2910    -0.0010 n7         1 B33      -0.858400
     14 C14          8.1710    -0.0980     0.0730 c3         1 B33      -0.089100
     15 H101         3.1960     1.3090     0.8240 h1         1 B33       0.027200
     16 H102         3.2110     1.2510    -0.9500 h1         1 B33       0.027200
     17 H121         5.7380     1.0220     0.8730 h1         1 B33       0.027200
     18 H122         5.7740     0.9650    -0.9020 h1         1 B33       0.027200
     19 H131         6.6660    -1.3790    -0.8030 hc         1 B33       0.044700
     20 H132         6.6260    -1.3230     0.9610 hc         1 B33       0.044700
     21 H11         -7.9450    -1.4240    -0.7650 hc         1 B33       0.037700
     22 H12         -7.8930    -1.3720     1.0140 hc         1 B33       0.037700
     23 H13         -8.9830    -0.2900     0.1240 hc         1 B33       0.037700
     24 H21         -6.9940     0.9730     0.9180 h1         1 B33       0.026700
     25 H22         -7.0390     0.9180    -0.8570 h1         1 B33       0.026700
     26 HN3         -5.5160    -0.9370    -0.7920 hn         1 B33       0.403000
     27 H41         -4.4500     1.2820     0.8500 h1         1 B33       0.026700
     28 H42         -4.4770     1.2230    -0.9240 h1         1 B33       0.026700
     29 H51         -3.0670    -0.8480    -0.8730 hc         1 B33       0.052700
     30 H52         -3.0450    -0.7900     0.8940 hc         1 B33       0.052700
     31 H61         -1.9060     1.4380     0.8130 h1         1 B33       0.027200
     32 H62         -1.9240     1.3800    -0.9620 h1         1 B33       0.027200
     33 HN7         -0.6260    -0.6370    -0.8640 hn         1 B33       0.403000
     34 H81          0.6510     1.4470     0.8040 h1         1 B33       0.027200
     35 H82          0.6570     1.3900    -0.9710 h1         1 B33       0.027200
     36 H91          1.8170    -0.8300    -0.8890 hc         1 B33       0.052700
     37 H92          1.8060    -0.7730     0.8770 hc         1 B33       0.052700
     38 HN11         4.2660    -0.9010    -0.8250 hn         1 B33       0.403000
     39 H141         8.3050     0.5520     0.9460 hc         1 B33       0.032700
     40 H142         8.9290    -0.8890     0.1150 hc         1 B33       0.032700
     41 H143         8.3450     0.4970    -0.8320 hc         1 B33       0.032700
@<TRIPOS>BOND
     1     1    12 1   
     2     1    13 1   
     3     1    15 1   
     4     1    16 1   
     5     2     3 1   
     6     2    13 1   
     7     2    17 1   
     8     2    18 1   
     9     3    14 1   
    10     3    19 1   
    11     3    20 1   
    12     4     5 1   
    13     4    21 1   
    14     4    22 1   
    15     4    23 1   
    16     5     6 1   
    17     5    24 1   
    18     5    25 1   
    19     6     7 1   
    20     6    26 1   
    21     7     8 1   
    22     7    27 1   
    23     7    28 1   
    24     8     9 1   
    25     8    29 1   
    26     8    30 1   
    27     9    10 1   
    28     9    31 1   
    29     9    32 1   
    30    10    11 1   
    31    10    33 1   
    32    11    12 1   
    33    11    34 1   
    34    11    35 1   
    35    12    36 1   
    36    12    37 1   
    37    13    38 1   
    38    14    39 1   
    39    14    40 1   
    40    14    41 1   
@<TRIPOS>SUBSTRUCTURE
     1 B33         1 TEMP              0 ****  ****    0 ROOT
