@<TRIPOS>MOLECULE
B33
   41    40     1     0     0
SMALL
abcg2


@<TRIPOS>ATOM
      1 C10          3.1220     0.4790     0.0270 c3         1 B33       0.160800
      2 C12          5.5350     0.3540    -0.0300 c3         1 B33       0.158800
      3 C13          6.7390    -0.5750     0.0020 c3         1 B33      -0.079400
      4 C1          -7.9650    -0.4860    -0.0620 c3         1 B33      -0.092100
      5 C2          -6.7630     0.4420    -0.0700 c3         1 B33       0.159800
      6 N3          -5.5230    -0.3060     0.0310 n7         1 B33      -0.860400
      7 C4          -4.3450     0.5380    -0.0080 c3         1 B33       0.160800
      8 C5          -3.0700    -0.2870     0.0770 c3         1 B33      -0.083400
      9 C6          -1.8200     0.5770     0.0400 c3         1 B33       0.160800
     10 N7          -0.6180    -0.2300     0.1210 n7         1 B33      -0.857400
     11 C8           0.5980     0.5580     0.0550 c3         1 B33       0.160800
     12 C9           1.8350    -0.3260     0.1090 c3         1 B33      -0.083400
     13 N11          4.2890    -0.3800     0.0820 n7         1 B33      -0.858400
     14 C14          8.0530     0.1830    -0.1270 c3         1 B33      -0.089100
     15 H101         3.1680     1.1750     0.8730 h1         1 B33       0.027200
     16 H102         3.1030     1.1060    -0.8800 h1         1 B33       0.027200
     17 H121         5.5990     1.0540     0.8100 h1         1 B33       0.027200
     18 H122         5.5790     0.9720    -0.9430 h1         1 B33       0.027200
     19 H131         6.6560    -1.3030    -0.8110 hc         1 B33       0.044700
     20 H132         6.7250    -1.1480     0.9330 hc         1 B33       0.044700
     21 H11         -7.9440    -1.1630    -0.9170 hc         1 B33       0.037700
     22 H12         -7.9850    -1.0900     0.8460 hc         1 B33       0.037700
     23 H13         -8.8940     0.0810    -0.1120 hc         1 B33       0.037700
     24 H21         -6.8210     1.1220     0.7860 h1         1 B33       0.026700
     25 H22         -6.7970     1.0800    -0.9680 h1         1 B33       0.026700
     26 HN3         -5.4780    -0.9610    -0.7430 hn         1 B33       0.403000
     27 H41         -4.3890     1.2250     0.8430 h1         1 B33       0.026700
     28 H42         -4.3110     1.1730    -0.9100 h1         1 B33       0.026700
     29 H51         -3.0430    -0.9970    -0.7580 hc         1 B33       0.052700
     30 H52         -3.0780    -0.8800     0.9960 hc         1 B33       0.052700
     31 H61         -1.8290     1.2640     0.8920 h1         1 B33       0.027200
     32 H62         -1.8390     1.2110    -0.8630 h1         1 B33       0.027200
     33 HN7         -0.6180    -0.8870    -0.6520 hn         1 B33       0.403000
     34 H81          0.6080     1.2460     0.9070 h1         1 B33       0.027200
     35 H82          0.6400     1.1900    -0.8480 h1         1 B33       0.027200
     36 H91          1.8030    -1.0410    -0.7220 hc         1 B33       0.052700
     37 H92          1.8260    -0.9130     1.0320 hc         1 B33       0.052700
     38 HN11         4.2360    -1.0440    -0.6830 hn         1 B33       0.403000
     39 H141         8.1720     0.9070     0.6820 hc         1 B33       0.032700
     40 H142         8.9090    -0.4910    -0.0940 hc         1 B33       0.032700
     41 H143         8.1010     0.7330    -1.0690 hc         1 B33       0.032700
@<TRIPOS>BOND
     1     1    12 1   
     2     1    13 1   
     3     1    15 1   
     4     1    16 1   
     5     2     3 1   
     6     2    13 1   
     7     2    17 1   
     8     2    18 1   
     9     3    14 1   
    10     3    19 1   
    11     3    20 1   
    12     4     5 1   
    13     4    21 1   
    14     4    22 1   
    15     4    23 1   
    16     5     6 1   
    17     5    24 1   
    18     5    25 1   
    19     6     7 1   
    20     6    26 1   
    21     7     8 1   
    22     7    27 1   
    23     7    28 1   
    24     8     9 1   
    25     8    29 1   
    26     8    30 1   
    27     9    10 1   
    28     9    31 1   
    29     9    32 1   
    30    10    11 1   
    31    10    33 1   
    32    11    12 1   
    33    11    34 1   
    34    11    35 1   
    35    12    36 1   
    36    12    37 1   
    37    13    38 1   
    38    14    39 1   
    39    14    40 1   
    40    14    41 1   
@<TRIPOS>SUBSTRUCTURE
     1 B33         1 TEMP              0 ****  ****    0 ROOT
