@<TRIPOS>MOLECULE
B34
   48    51     1     0     0
SMALL
bcc


@<TRIPOS>ATOM
      1 O26          4.0060     0.4940     2.9330 o          1 B34      -0.592800
      2 S28          3.8360    -0.0980     1.6190 sy         1 B34       1.329700
      3 O25          4.6860    -1.2160     1.2570 o          1 B34      -0.592800
      4 C12          3.8100     1.1340     0.3590 ca         1 B34      -0.268500
      5 C9           4.8530     1.9360    -0.0380 ca         1 B34      -0.015000
      6 C5           4.5960     2.8470    -1.0590 ca         1 B34      -0.113000
      7 N22          2.2420    -0.5140     1.3990 ne         1 B34      -0.824300
      8 C13          1.6560     0.1870     0.4620 cf         1 B34       0.747200
      9 C10          2.5370     1.1850    -0.1960 ca         1 B34      -0.158900
     10 C6           2.2930     2.0960    -1.2130 ca         1 B34      -0.056000
     11 C2           3.3340     2.9200    -1.6320 ca         1 B34      -0.101000
     12 C14          0.2790    -0.1170     0.2240 cf         1 B34      -0.474800
     13 C16         -0.7220     0.4500    -0.7020 c          1 B34       0.756700
     14 O24         -0.5920     1.3490    -1.5150 o          1 B34      -0.637500
     15 N23         -1.8810    -0.2250    -0.4800 n          1 B34      -0.489800
     16 C17         -1.7880    -1.2330     0.5490 c5         1 B34       0.121900
     17 C21         -2.1870    -2.6370     0.0570 c3         1 B34      -0.056700
     18 C19         -1.2880    -3.1280    -1.0690 c3         1 B34      -0.093100
     19 C18         -2.2760    -3.6460     1.1960 c3         1 B34      -0.093100
     20 C15         -0.3610    -1.0880     0.9610 c2         1 B34       0.272900
     21 O27          0.1290    -1.8210     1.9030 oh         1 B34      -0.451100
     22 C20         -3.1310     0.0720    -1.1360 c3         1 B34       0.157300
     23 C11         -4.2070     0.4660    -0.1560 ca         1 B34      -0.119300
     24 C7          -5.4070    -0.2330    -0.1080 ca         1 B34      -0.116500
     25 C3          -6.4040     0.1290     0.7890 ca         1 B34      -0.128500
     26 C8          -4.0130     1.5340     0.7170 ca         1 B34      -0.116500
     27 C4          -5.0040     1.8940     1.6170 ca         1 B34      -0.128500
     28 C1          -6.2030     1.1920     1.6550 ca         1 B34      -0.120000
     29 H9           5.8250     1.8590     0.4240 ha         1 B34       0.151000
     30 H5           5.3840     3.5000    -1.4060 ha         1 B34       0.141000
     31 H6           1.3180     2.1680    -1.6690 ha         1 B34       0.185000
     32 H2           3.1530     3.6330    -2.4240 ha         1 B34       0.142000
     33 H17         -2.4240    -0.9630     1.4040 h1         1 B34       0.096700
     34 H21         -3.2010    -2.5230    -0.3410 hc         1 B34       0.057700
     35 H19         -0.2770    -3.3370    -0.7160 hc         1 B34       0.043367
     36 H19A        -1.6810    -4.0550    -1.4870 hc         1 B34       0.043367
     37 H19B        -1.2160    -2.4080    -1.8850 hc         1 B34       0.043367
     38 H18         -1.2960    -3.9270     1.5800 hc         1 B34       0.043367
     39 H18A        -2.8680    -3.2660     2.0290 hc         1 B34       0.043367
     40 H18B        -2.7600    -4.5560     0.8420 hc         1 B34       0.043367
     41 H20         -2.9450     0.8750    -1.8490 h1         1 B34       0.068200
     42 H20A        -3.4630    -0.7900    -1.7210 h1         1 B34       0.068200
     43 H7          -5.5670    -1.0690    -0.7790 ha         1 B34       0.133500
     44 H3          -7.3330    -0.4250     0.8120 ha         1 B34       0.134000
     45 H8          -3.0850     2.0930     0.6970 ha         1 B34       0.133500
     46 H4          -4.8430     2.7270     2.2880 ha         1 B34       0.134000
     47 H1          -6.9750     1.4760     2.3580 ha         1 B34       0.133000
     48 H201         1.0910    -1.5580     2.0090 ho         1 B34       0.522000
@<TRIPOS>BOND
     1     1     2 2   
     2     2     3 2   
     3     2     4 1   
     4     2     7 1   
     5     4     5 ar  
     6     4     9 ar  
     7     5     6 ar  
     8     5    29 1   
     9     6    11 ar  
    10     6    30 1   
    11     7     8 2   
    12     8     9 1   
    13     8    12 1   
    14     9    10 ar  
    15    10    11 ar  
    16    10    31 1   
    17    11    32 1   
    18    12    13 1   
    19    12    20 2   
    20    13    14 2   
    21    13    15 1   
    22    15    16 1   
    23    15    22 1   
    24    16    17 1   
    25    16    20 1   
    26    16    33 1   
    27    17    18 1   
    28    17    19 1   
    29    17    34 1   
    30    18    35 1   
    31    18    36 1   
    32    18    37 1   
    33    19    38 1   
    34    19    39 1   
    35    19    40 1   
    36    20    21 1   
    37    21    48 1   
    38    22    23 1   
    39    22    41 1   
    40    22    42 1   
    41    23    24 ar  
    42    23    26 ar  
    43    24    25 ar  
    44    24    43 1   
    45    25    28 ar  
    46    25    44 1   
    47    26    27 ar  
    48    26    45 1   
    49    27    28 ar  
    50    27    46 1   
    51    28    47 1   
@<TRIPOS>SUBSTRUCTURE
     1 B34         1 TEMP              0 ****  ****    0 ROOT
