@<TRIPOS>MOLECULE
B34
   48    51     1     0     0
SMALL
No Charge or Current Charge


@<TRIPOS>ATOM
      1 O26          3.8720     1.8050     2.8590 o          1 B34      -0.522000
      2 S28          3.8290     0.6230     1.9930 sy         1 B34       1.188100
      3 O25          4.7740    -0.4870     2.1450 o          1 B34      -0.522000
      4 C12          3.9000     1.1720     0.3190 ca         1 B34      -0.268500
      5 C9           5.0010     1.6500    -0.4070 ca         1 B34       0.003000
      6 C5           4.8140     1.9070    -1.7790 ca         1 B34      -0.095000
      7 N22          2.2760     0.0390     1.9190 ne         1 B34      -0.824300
      8 C13          1.7460     0.3880     0.7750 cf         1 B34       0.747200
      9 C10          2.6620     0.9520    -0.2450 ca         1 B34      -0.158900
     10 C6           2.4830     1.1480    -1.6300 ca         1 B34      -0.038000
     11 C2           3.5640     1.6480    -2.3880 ca         1 B34      -0.083000
     12 C14          0.3590     0.0400     0.5920 cf         1 B34      -0.474800
     13 C16         -0.5690     0.8250    -0.2020 c          1 B34       0.614200
     14 O24         -0.3250     1.8630    -0.7920 o          1 B34      -0.562000
     15 N23         -1.8240     0.2240    -0.1130 n          1 B34      -0.422800
     16 C17         -1.8010    -1.0010     0.7380 c5         1 B34       0.121900
     17 C21         -2.2030    -2.2920    -0.0390 c3         1 B34      -0.056700
     18 C19         -1.2970    -2.5960    -1.2580 c3         1 B34      -0.093100
     19 C18         -2.3240    -3.5300     0.8810 c3         1 B34      -0.093100
     20 C15         -0.3360    -0.9410     1.1750 c2         1 B34       0.272900
     21 O27          0.2290    -1.7490     2.0790 oh         1 B34      -0.490100
     22 C20         -3.0200     0.8110    -0.7500 c3         1 B34       0.157300
     23 C11         -4.2800     0.6760     0.0950 ca         1 B34      -0.119300
     24 C7          -5.3400    -0.1510    -0.3260 ca         1 B34      -0.098500
     25 C3          -6.4940    -0.2810     0.4660 ca         1 B34      -0.110500
     26 C8          -4.3880     1.3730     1.3140 ca         1 B34      -0.098500
     27 C4          -5.5420     1.2430     2.1060 ca         1 B34      -0.110500
     28 C1          -6.5960     0.4150     1.6820 ca         1 B34      -0.102000
     29 H9           5.9690     1.8010     0.0660 ha         1 B34       0.133000
     30 H5           5.6430     2.2800    -2.3770 ha         1 B34       0.123000
     31 H6           1.5440     0.9100    -2.1250 ha         1 B34       0.167000
     32 H2           3.4390     1.8190    -3.4550 ha         1 B34       0.124000
     33 H17         -2.4670    -0.8800     1.6040 h1         1 B34       0.096700
     34 H21         -3.2100    -2.1230    -0.4390 hc         1 B34       0.057700
     35 H19         -0.2680    -2.8080    -0.9440 hc         1 B34       0.043367
     36 H19A        -1.6700    -3.4690    -1.8080 hc         1 B34       0.043367
     37 H19B        -1.2760    -1.7490    -1.9540 hc         1 B34       0.043367
     38 H18         -1.3470    -3.8290     1.2760 hc         1 B34       0.043367
     39 H18A        -2.9890    -3.3200     1.7280 hc         1 B34       0.043367
     40 H18B        -2.7410    -4.3810     0.3290 hc         1 B34       0.043367
     41 H20         -2.8470     1.8780    -0.9460 h1         1 B34       0.068200
     42 H20A        -3.1690     0.3220    -1.7220 h1         1 B34       0.068200
     43 H7          -5.2710    -0.6970    -1.2650 ha         1 B34       0.115500
     44 H3          -7.3090    -0.9220     0.1370 ha         1 B34       0.116000
     45 H8          -3.5740     2.0130     1.6500 ha         1 B34       0.115500
     46 H4          -5.6200     1.7820     3.0470 ha         1 B34       0.116000
     47 H1          -7.4890     0.3140     2.2950 ha         1 B34       0.115000
     48 H201         1.1120    -1.3280     2.2520 ho         1 B34       0.561000
@<TRIPOS>BOND
     1     1     2 2   
     2     2     3 2   
     3     2     4 1   
     4     2     7 1   
     5     4     5 ar  
     6     4     9 ar  
     7     5     6 ar  
     8     5    29 1   
     9     6    11 ar  
    10     6    30 1   
    11     7     8 2   
    12     8     9 1   
    13     8    12 1   
    14     9    10 ar  
    15    10    11 ar  
    16    10    31 1   
    17    11    32 1   
    18    12    13 1   
    19    12    20 2   
    20    13    14 2   
    21    13    15 1   
    22    15    16 1   
    23    15    22 1   
    24    16    17 1   
    25    16    20 1   
    26    16    33 1   
    27    17    18 1   
    28    17    19 1   
    29    17    34 1   
    30    18    35 1   
    31    18    36 1   
    32    18    37 1   
    33    19    38 1   
    34    19    39 1   
    35    19    40 1   
    36    20    21 1   
    37    21    48 1   
    38    22    23 1   
    39    22    41 1   
    40    22    42 1   
    41    23    24 ar  
    42    23    26 ar  
    43    24    25 ar  
    44    24    43 1   
    45    25    28 ar  
    46    25    44 1   
    47    26    27 ar  
    48    26    45 1   
    49    27    28 ar  
    50    27    46 1   
    51    28    47 1   
@<TRIPOS>SUBSTRUCTURE
     1 B34         1 TEMP              0 ****  ****    0 ROOT
