@<TRIPOS>MOLECULE
B35
   47    49     1     0     0
SMALL
abcg2


@<TRIPOS>ATOM
      1 C1          -4.7620     1.1310     0.0420 ca         1 B35       0.102100
      2 C2          -4.0370     1.5080     1.1650 ca         1 B35      -0.176000
      3 C3          -2.6760     1.2280     1.2510 ca         1 B35      -0.079000
      4 C4          -1.9990     0.5700     0.2360 ca         1 B35      -0.089300
      5 N            0.8690    -1.5870     1.3070 nc         1 B35      -0.725000
      6 C5          -2.7250     0.1970    -0.8970 ca         1 B35      -0.121000
      7 C6          -6.7990     2.0010     0.8610 c3         1 B35       0.146900
      8 C7          -0.5290     0.2540     0.3700 c3         1 B35      -0.025700
      9 C8          -0.2990    -1.1900     0.6990 cc         1 B35       0.272300
     10 C           -4.0690     0.4750    -0.9770 ca         1 B35       0.134000
     11 O           -6.0720     1.3460    -0.1600 os         1 B35      -0.323100
     12 F           -4.7550     0.1120    -2.0730 f          1 B35      -0.170000
     13 C9           0.2570     0.7010    -0.8870 c3         1 B35      -0.009100
     14 C10          1.7420     0.5260    -0.7430 ca         1 B35      -0.115300
     15 C11          2.4980     1.5370    -0.1890 ca         1 B35      -0.007000
     16 C12          3.8680     1.3780     0.0070 ca         1 B35      -0.228200
     17 C13          4.5030     0.2000    -0.3520 ca         1 B35       0.001000
     18 C14          3.7620    -0.8190    -0.9180 ca         1 B35      -0.222000
     19 C15          2.3890    -0.6670    -1.1230 ca         1 B35       0.221100
     20 O16          1.6250    -1.6010    -1.6810 os         1 B35      -0.326100
     21 C17          2.1710    -2.8800    -1.9520 c3         1 B35       0.144900
     22 C18          0.8110    -2.8930     1.3680 cd         1 B35       0.609400
     23 N19         -0.3430    -3.3620     0.8500 na         1 B35      -0.330500
     24 C20         -1.0750    -2.2730     0.4230 cd         1 B35      -0.216000
     25 N21          1.8130    -3.7200     1.8210 nv         1 B35      -1.022900
     26 N22          4.6320     2.4520     0.5880 no         1 B35       0.703200
     27 O23          4.0590     3.4830     0.8660 o          1 B35      -0.413000
     28 O24          5.8180     2.2810     0.7730 o          1 B35      -0.413000
     29 H2          -4.5160     2.0250     1.9840 ha         1 B35       0.121000
     30 H3          -2.1390     1.5390     2.1390 ha         1 B35       0.120000
     31 H5          -2.2530    -0.3130    -1.7270 ha         1 B35       0.134000
     32 H6          -6.7870     1.4350     1.7960 h1         1 B35       0.043367
     33 H6A         -6.4170     3.0070     1.0520 h1         1 B35       0.043367
     34 H6B         -7.8250     2.0760     0.5090 h1         1 B35       0.043367
     35 H7          -0.1440     0.8430     1.2100 hc         1 B35       0.072700
     36 H9          -0.1090     0.1620    -1.7610 hc         1 B35       0.057200
     37 H9A          0.0440     1.7580    -1.0570 hc         1 B35       0.057200
     38 H11          2.0050     2.4550     0.1010 ha         1 B35       0.147000
     39 H13          5.5640     0.0650    -0.2040 ha         1 B35       0.145000
     40 H14          4.2700    -1.7300    -1.1990 ha         1 B35       0.127000
     41 H17          2.9700    -2.8320    -2.6950 h1         1 B35       0.048367
     42 H17A         2.5490    -3.3540    -1.0440 h1         1 B35       0.048367
     43 H17B         1.3560    -3.4790    -2.3490 h1         1 B35       0.048367
     44 HN19        -0.6270    -4.3260     0.7890 hn         1 B35       0.351000
     45 H20         -2.0480    -2.3850    -0.0210 h4         1 B35       0.164000
     46 HN21         2.5140    -3.2180     2.3420 hn         1 B35       0.454000
     47 HN2A         1.4990    -4.5310     2.3330 hn         1 B35       0.454000
@<TRIPOS>BOND
     1     1     2 ar  
     2     1    10 ar  
     3     1    11 1   
     4     2     3 ar  
     5     2    29 1   
     6     3     4 ar  
     7     3    30 1   
     8     4     6 ar  
     9     4     8 1   
    10     5     9 1   
    11     5    22 2   
    12     6    10 ar  
    13     6    31 1   
    14     7    11 1   
    15     7    32 1   
    16     7    33 1   
    17     7    34 1   
    18     8     9 1   
    19     8    13 1   
    20     8    35 1   
    21     9    24 2   
    22    10    12 1   
    23    13    14 1   
    24    13    36 1   
    25    13    37 1   
    26    14    15 ar  
    27    14    19 ar  
    28    15    16 ar  
    29    15    38 1   
    30    16    17 ar  
    31    16    26 1   
    32    17    18 ar  
    33    17    39 1   
    34    18    19 ar  
    35    18    40 1   
    36    19    20 1   
    37    20    21 1   
    38    21    41 1   
    39    21    42 1   
    40    21    43 1   
    41    22    23 1   
    42    22    25 1   
    43    23    24 1   
    44    23    44 1   
    45    24    45 1   
    46    25    46 1   
    47    25    47 1   
    48    26    27 1   
    49    26    28 1   
@<TRIPOS>SUBSTRUCTURE
     1 B35         1 TEMP              0 ****  ****    0 ROOT
