@<TRIPOS>MOLECULE
B35
   47    49     1     0     0
SMALL
No Charge or Current Charge


@<TRIPOS>ATOM
      1 C1          -4.7540     1.1530     0.1290 ca         1 B35       0.102100
      2 C2          -3.9770     1.4710     1.2650 ca         1 B35      -0.176000
      3 C3          -2.6070     1.1540     1.2950 ca         1 B35      -0.079000
      4 C4          -1.9860     0.5210     0.1990 ca         1 B35      -0.089300
      5 N            0.4740    -1.6100     1.7480 nc         1 B35      -0.725000
      6 C5          -2.7670     0.1980    -0.9320 ca         1 B35      -0.121000
      7 C6          -6.8130     2.0950     1.1260 c3         1 B35       0.146900
      8 C7          -0.4920     0.1820     0.2690 c3         1 B35      -0.025700
      9 C8          -0.2680    -1.2670     0.6450 cc         1 B35       0.272300
     10 C           -4.1360     0.5120    -0.9640 ca         1 B35       0.134000
     11 O           -6.1060     1.4450     0.0550 os         1 B35      -0.323100
     12 F           -4.8580     0.1900    -2.0630 f          1 B35      -0.170000
     13 C9           0.2730     0.5750    -1.0230 c3         1 B35      -0.009100
     14 C10          1.7930     0.4720    -0.8650 ca         1 B35      -0.115300
     15 C11          2.4880     1.5410    -0.2660 ca         1 B35      -0.007000
     16 C12          3.8880     1.4850    -0.0860 ca         1 B35      -0.228200
     17 C13          4.5910     0.3370    -0.5130 ca         1 B35       0.001000
     18 C14          3.9020    -0.7310    -1.1090 ca         1 B35      -0.222000
     19 C15          2.5040    -0.6730    -1.2890 ca         1 B35       0.221100
     20 O16          1.8040    -1.7120    -1.8750 os         1 B35      -0.326100
     21 C17          2.4230    -2.9610    -2.2280 c3         1 B35       0.144900
     22 C18          0.4580    -2.9080     1.7570 cd         1 B35       0.609400
     23 N19         -0.2640    -3.4550     0.7410 na         1 B35      -0.330500
     24 C20         -0.7490    -2.3840     0.0020 cd         1 B35      -0.216000
     25 N21          1.0640    -3.6230     2.7010 nv         1 B35      -1.022900
     26 N22          4.6180     2.6250     0.5520 no         1 B35       0.703200
     27 O23          3.9620     3.6120     0.9110 o          1 B35      -0.413000
     28 O24          5.8450     2.5320     0.6910 o          1 B35      -0.413000
     29 H2          -4.4140     1.9610     2.1300 ha         1 B35       0.121000
     30 H3          -2.0250     1.4030     2.1810 ha         1 B35       0.120000
     31 H5          -2.3270    -0.3040    -1.7890 ha         1 B35       0.134000
     32 H6          -6.7700     1.4950     2.0430 h1         1 B35       0.043367
     33 H6A         -6.3860     3.0850     1.3310 h1         1 B35       0.043367
     34 H6B         -7.8680     2.2300     0.8570 h1         1 B35       0.043367
     35 H7          -0.0540     0.7960     1.0660 hc         1 B35       0.072700
     36 H9          -0.0690    -0.0390    -1.8630 hc         1 B35       0.057200
     37 H9A          0.0050     1.6060    -1.2870 hc         1 B35       0.057200
     38 H11          1.9270     2.4160     0.0610 ha         1 B35       0.147000
     39 H13          5.6700     0.2640    -0.3880 ha         1 B35       0.145000
     40 H14          4.4750    -1.5970    -1.4270 ha         1 B35       0.127000
     41 H17          3.2070    -2.8100    -2.9810 h1         1 B35       0.048367
     42 H17A         2.8660    -3.4390    -1.3450 h1         1 B35       0.048367
     43 H17B         1.6780    -3.6470    -2.6480 h1         1 B35       0.048367
     44 HN19        -0.4010    -4.4420     0.5760 hn         1 B35       0.351000
     45 H20         -1.3620    -2.4840    -0.8850 h4         1 B35       0.164000
     46 HN21         1.3670    -3.1080     3.5180 hn         1 B35       0.454000
     47 HN2A         0.7550    -4.5770     2.8520 hn         1 B35       0.454000
@<TRIPOS>BOND
     1     1     2 ar  
     2     1    10 ar  
     3     1    11 1   
     4     2     3 ar  
     5     2    29 1   
     6     3     4 ar  
     7     3    30 1   
     8     4     6 ar  
     9     4     8 1   
    10     5     9 1   
    11     5    22 2   
    12     6    10 ar  
    13     6    31 1   
    14     7    11 1   
    15     7    32 1   
    16     7    33 1   
    17     7    34 1   
    18     8     9 1   
    19     8    13 1   
    20     8    35 1   
    21     9    24 2   
    22    10    12 1   
    23    13    14 1   
    24    13    36 1   
    25    13    37 1   
    26    14    15 ar  
    27    14    19 ar  
    28    15    16 ar  
    29    15    38 1   
    30    16    17 ar  
    31    16    26 1   
    32    17    18 ar  
    33    17    39 1   
    34    18    19 ar  
    35    18    40 1   
    36    19    20 1   
    37    20    21 1   
    38    21    41 1   
    39    21    42 1   
    40    21    43 1   
    41    22    23 1   
    42    22    25 1   
    43    23    24 1   
    44    23    44 1   
    45    24    45 1   
    46    25    46 1   
    47    25    47 1   
    48    26    27 1   
    49    26    28 1   
@<TRIPOS>SUBSTRUCTURE
     1 B35         1 TEMP              0 ****  ****    0 ROOT
