@<TRIPOS>MOLECULE
B36
   62    67     1     0     0
SMALL
No Charge or Current Charge


@<TRIPOS>ATOM
      1 CBE         -4.0890     1.2320     0.3900 ca         1 B36      -0.004000
      2 CAK         -3.3390     2.3540     0.8160 ca         1 B36      -0.101000
      3 CAE         -3.7910     3.6580     0.5540 ca         1 B36      -0.102000
      4 CAC         -4.9930     3.8610    -0.1390 ca         1 B36      -0.106500
      5 CAI         -5.7430     2.7580    -0.5760 ca         1 B36      -0.097500
      6 CBB         -5.2940     1.4480    -0.3180 ca         1 B36      -0.039000
      7 CAP         -6.0500     0.3580    -0.7750 ca         1 B36      -0.075000
      8 CBC         -5.6180    -0.9560    -0.5360 ca         1 B36      -0.039000
      9 CAJ         -6.3920    -2.0350    -1.0060 ca         1 B36      -0.097500
     10 CAD         -5.9800    -3.3560    -0.7710 ca         1 B36      -0.106500
     11 CAF         -4.7950    -3.6020    -0.0630 ca         1 B36      -0.102000
     12 CAL         -4.0180    -2.5300     0.4090 ca         1 B36      -0.101000
     13 CBF         -4.4170    -1.1930     0.1720 ca         1 B36      -0.004000
     14 CAZ         -3.6460    -0.0940     0.6370 ca         1 B36      -0.119600
     15 CAW         -2.3550    -0.3280     1.3750 c          1 B36       0.615700
     16 OAB         -2.2820    -0.1460     2.5850 o          1 B36      -0.592100
     17 NBH         -1.2550    -0.8180     0.6340 n          1 B36      -0.404800
     18 CAT         -1.1970    -0.7870    -0.8510 c6         1 B36       0.097000
     19 CAR         -0.2060     0.2990    -1.3300 c6         1 B36      -0.096900
     20 CAS          0.0630    -1.0850     1.2610 c6         1 B36       0.097000
     21 CAQ          1.0950    -0.0120     0.8390 c6         1 B36      -0.096900
     22 CBG          1.2030     0.0870    -0.7090 c6         1 B36      -0.056700
     23 CAU          2.1940     1.2000    -1.1600 c3         1 B36      -0.028100
     24 CAY          3.6210     0.9890    -0.6650 ca         1 B36      -0.076300
     25 CAO          4.4230    -0.0200    -1.2270 ca         1 B36      -0.090000
     26 CBA          5.7380    -0.2230    -0.7660 ca         1 B36      -0.084000
     27 CAM          6.5350    -1.2330    -1.3310 ca         1 B36      -0.061000
     28 CAG          7.8380    -1.4030    -0.8420 ca         1 B36      -0.164000
     29 CAX          8.2980    -0.5650     0.1880 ca         1 B36       0.372300
     30 CAA          9.7010    -0.7060     0.7470 c3         1 B36      -0.149400
     31 NAV          7.5350     0.4090     0.7320 nb         1 B36      -0.669000
     32 CBD          6.2730     0.5840     0.2700 ca         1 B36       0.275000
     33 CAN          5.4590     1.5900     0.8220 ca         1 B36      -0.082000
     34 CAH          4.1460     1.7940     0.3620 ca         1 B36      -0.100000
     35 HAK         -2.4000     2.2360     1.3510 ha         1 B36       0.122500
     36 HAE         -3.2070     4.5130     0.8880 ha         1 B36       0.114500
     37 HAC         -5.3420     4.8720    -0.3420 ha         1 B36       0.114000
     38 HAI         -6.6710     2.9230    -1.1180 ha         1 B36       0.114000
     39 HAP         -6.9750     0.5320    -1.3200 ha         1 B36       0.116000
     40 HAJ         -7.3150    -1.8520    -1.5520 ha         1 B36       0.114000
     41 HAD         -6.5810    -4.1870    -1.1350 ha         1 B36       0.114000
     42 HAF         -4.4780    -4.6260     0.1240 ha         1 B36       0.114500
     43 HAL         -3.1110    -2.7600     0.9600 ha         1 B36       0.122500
     44 HAT         -0.8670    -1.7710    -1.2150 h1         1 B36       0.058700
     45 HATA        -2.1830    -0.5970    -1.2960 h1         1 B36       0.058700
     46 HAR         -0.1430     0.2800    -2.4270 hc         1 B36       0.051450
     47 HARA        -0.5930     1.2890    -1.0540 hc         1 B36       0.051450
     48 HAS         -0.0190    -1.1090     2.3570 h1         1 B36       0.058700
     49 HASA         0.4160    -2.0770     0.9430 h1         1 B36       0.058700
     50 HAQ          0.7980     0.9610     1.2570 hc         1 B36       0.051450
     51 HAQA         2.0710    -0.2580     1.2770 hc         1 B36       0.051450
     52 HBG          1.6050    -0.8630    -1.0900 hc         1 B36       0.049700
     53 HAU          2.2070     1.2520    -2.2560 hc         1 B36       0.049200
     54 HAUA         1.8230     2.1780    -0.8280 hc         1 B36       0.049200
     55 HAO          4.0230    -0.6460    -2.0220 ha         1 B36       0.112000
     56 HAM          6.1560    -1.8700    -2.1280 ha         1 B36       0.118000
     57 HAG          8.4850    -2.1720    -1.2550 ha         1 B36       0.122000
     58 HAA         10.3710     0.0410     0.3050 hc         1 B36       0.052700
     59 HAAA         9.7130    -0.5700     1.8340 hc         1 B36       0.052700
     60 HAAB        10.1170    -1.6970     0.5340 hc         1 B36       0.052700
     61 HAN          5.8520     2.2180     1.6170 ha         1 B36       0.132000
     62 HAH          3.5380     2.5770     0.8100 ha         1 B36       0.115000
@<TRIPOS>BOND
     1     1     2 ar  
     2     1     6 ar  
     3     1    14 ar  
     4     2     3 ar  
     5     2    35 1   
     6     3     4 ar  
     7     3    36 1   
     8     4     5 ar  
     9     4    37 1   
    10     5     6 ar  
    11     5    38 1   
    12     6     7 ar  
    13     7     8 ar  
    14     7    39 1   
    15     8     9 ar  
    16     8    13 ar  
    17     9    10 ar  
    18     9    40 1   
    19    10    11 ar  
    20    10    41 1   
    21    11    12 ar  
    22    11    42 1   
    23    12    13 ar  
    24    12    43 1   
    25    13    14 ar  
    26    14    15 1   
    27    15    16 2   
    28    15    17 1   
    29    17    18 1   
    30    17    20 1   
    31    18    19 1   
    32    18    44 1   
    33    18    45 1   
    34    19    22 1   
    35    19    46 1   
    36    19    47 1   
    37    20    21 1   
    38    20    48 1   
    39    20    49 1   
    40    21    22 1   
    41    21    50 1   
    42    21    51 1   
    43    22    23 1   
    44    22    52 1   
    45    23    24 1   
    46    23    53 1   
    47    23    54 1   
    48    24    25 ar  
    49    24    34 ar  
    50    25    26 ar  
    51    25    55 1   
    52    26    27 ar  
    53    26    32 ar  
    54    27    28 ar  
    55    27    56 1   
    56    28    29 ar  
    57    28    57 1   
    58    29    30 1   
    59    29    31 ar  
    60    30    58 1   
    61    30    59 1   
    62    30    60 1   
    63    31    32 ar  
    64    32    33 ar  
    65    33    34 ar  
    66    33    61 1   
    67    34    62 1   
@<TRIPOS>SUBSTRUCTURE
     1 B36         1 TEMP              0 ****  ****    0 ROOT
