@<TRIPOS>MOLECULE
B36
   62    67     1     0     0
SMALL
abcg2


@<TRIPOS>ATOM
      1 CBE         -3.8670     1.1020     0.2590 ca         1 B36      -0.004000
      2 CAK         -2.9540     2.1550     0.5680 ca         1 B36      -0.101000
      3 CAE         -3.2510     3.4480     0.2660 ca         1 B36      -0.102000
      4 CAC         -4.4800     3.7830    -0.3610 ca         1 B36      -0.106500
      5 CAI         -5.3780     2.8100    -0.6700 ca         1 B36      -0.097500
      6 CBB         -5.1040     1.4430    -0.3750 ca         1 B36      -0.039000
      7 CAP         -6.0120     0.4380    -0.6910 ca         1 B36      -0.075000
      8 CBC         -5.7420    -0.8970    -0.4090 ca         1 B36      -0.039000
      9 CAJ         -6.6710    -1.9270    -0.7380 ca         1 B36      -0.097500
     10 CAD         -6.3910    -3.2290    -0.4680 ca         1 B36      -0.106500
     11 CAF         -5.1610    -3.5820     0.1490 ca         1 B36      -0.102000
     12 CAL         -4.2500    -2.6280     0.4810 ca         1 B36      -0.101000
     13 CBF         -4.5050    -1.2490     0.2190 ca         1 B36      -0.004000
     14 CAZ         -3.5890    -0.2400     0.5360 ca         1 B36      -0.119600
     15 CAW         -2.3320    -0.5880     1.2820 c          1 B36       0.615700
     16 OAB         -2.3480    -0.5840     2.5070 o          1 B36      -0.592100
     17 NBH         -1.2500    -0.8940     0.5490 n          1 B36      -0.404800
     18 CAT         -1.1870    -0.8270    -0.9020 c6         1 B36       0.097000
     19 CAR         -0.1950     0.2390    -1.3470 c6         1 B36      -0.096900
     20 CAS          0.0320    -1.1690     1.1760 c6         1 B36       0.097000
     21 CAQ          1.0560    -0.1090     0.7910 c6         1 B36      -0.096900
     22 CBG          1.1840     0.0260    -0.7250 c6         1 B36      -0.056700
     23 CAU          2.1350     1.1550    -1.1390 c3         1 B36      -0.028100
     24 CAY          3.5390     0.9660    -0.6400 ca         1 B36      -0.076300
     25 CAO          4.4340     0.1760    -1.3210 ca         1 B36      -0.090000
     26 CBA          5.7410    -0.0350    -0.8360 ca         1 B36      -0.084000
     27 CAM          6.6940    -0.8370    -1.5060 ca         1 B36      -0.061000
     28 CAG          7.9350    -0.9900    -0.9670 ca         1 B36      -0.164000
     29 CAX          8.2530    -0.3400     0.2550 ca         1 B36       0.372300
     30 CAA          9.6230    -0.5010     0.8390 c3         1 B36      -0.149400
     31 NAV          7.3920     0.4090     0.8920 nb         1 B36      -0.669000
     32 CBD          6.1490     0.5750     0.3730 ca         1 B36       0.275000
     33 CAN          5.2240     1.3880     1.0620 ca         1 B36      -0.082000
     34 CAH          3.9620     1.5750     0.5650 ca         1 B36      -0.100000
     35 HAK         -2.0140     1.9260     1.0540 ha         1 B36       0.122500
     36 HAE         -2.5460     4.2320     0.5070 ha         1 B36       0.114500
     37 HAC         -4.6980     4.8180    -0.5890 ha         1 B36       0.114000
     38 HAI         -6.3180     3.0600    -1.1460 ha         1 B36       0.114000
     39 HAP         -6.9490     0.7020    -1.1680 ha         1 B36       0.116000
     40 HAJ         -7.6040    -1.6480    -1.2110 ha         1 B36       0.114000
     41 HAD         -7.1010    -4.0050    -0.7220 ha         1 B36       0.114000
     42 HAF         -4.9490    -4.6220     0.3540 ha         1 B36       0.114500
     43 HAL         -3.3200    -2.9260     0.9490 ha         1 B36       0.122500
     44 HAT         -0.8790    -1.8070    -1.2800 h1         1 B36       0.058700
     45 HATA        -2.1740    -0.6240    -1.3110 h1         1 B36       0.058700
     46 HAR         -0.1250     0.2240    -2.4370 hc         1 B36       0.051450
     47 HARA        -0.5800     1.2250    -1.0650 hc         1 B36       0.051450
     48 HAS         -0.0950    -1.2140     2.2540 h1         1 B36       0.058700
     49 HASA         0.3730    -2.1560     0.8450 h1         1 B36       0.058700
     50 HAQ          0.7640     0.8540     1.2270 hc         1 B36       0.051450
     51 HAQA         2.0150    -0.3780     1.2380 hc         1 B36       0.051450
     52 HBG          1.5890    -0.9170    -1.1150 hc         1 B36       0.049700
     53 HAU          2.1390     1.2200    -2.2300 hc         1 B36       0.049200
     54 HAUA         1.7390     2.1070    -0.7730 hc         1 B36       0.049200
     55 HAO          4.1420    -0.2970    -2.2520 ha         1 B36       0.112000
     56 HAM          6.4280    -1.3220    -2.4370 ha         1 B36       0.118000
     57 HAG          8.6810    -1.6020    -1.4570 ha         1 B36       0.122000
     58 HAA         10.3660     0.0160     0.2270 hc         1 B36       0.052700
     59 HAAA         9.6680    -0.0910     1.8460 hc         1 B36       0.052700
     60 HAAB         9.9150    -1.5520     0.8740 hc         1 B36       0.052700
     61 HAN          5.5330     1.8600     1.9860 ha         1 B36       0.132000
     62 HAH          3.2660     2.2060     1.1040 ha         1 B36       0.115000
@<TRIPOS>BOND
     1     1     2 ar  
     2     1     6 ar  
     3     1    14 ar  
     4     2     3 ar  
     5     2    35 1   
     6     3     4 ar  
     7     3    36 1   
     8     4     5 ar  
     9     4    37 1   
    10     5     6 ar  
    11     5    38 1   
    12     6     7 ar  
    13     7     8 ar  
    14     7    39 1   
    15     8     9 ar  
    16     8    13 ar  
    17     9    10 ar  
    18     9    40 1   
    19    10    11 ar  
    20    10    41 1   
    21    11    12 ar  
    22    11    42 1   
    23    12    13 ar  
    24    12    43 1   
    25    13    14 ar  
    26    14    15 1   
    27    15    16 2   
    28    15    17 1   
    29    17    18 1   
    30    17    20 1   
    31    18    19 1   
    32    18    44 1   
    33    18    45 1   
    34    19    22 1   
    35    19    46 1   
    36    19    47 1   
    37    20    21 1   
    38    20    48 1   
    39    20    49 1   
    40    21    22 1   
    41    21    50 1   
    42    21    51 1   
    43    22    23 1   
    44    22    52 1   
    45    23    24 1   
    46    23    53 1   
    47    23    54 1   
    48    24    25 ar  
    49    24    34 ar  
    50    25    26 ar  
    51    25    55 1   
    52    26    27 ar  
    53    26    32 ar  
    54    27    28 ar  
    55    27    56 1   
    56    28    29 ar  
    57    28    57 1   
    58    29    30 1   
    59    29    31 ar  
    60    30    58 1   
    61    30    59 1   
    62    30    60 1   
    63    31    32 ar  
    64    32    33 ar  
    65    33    34 ar  
    66    33    61 1   
    67    34    62 1   
@<TRIPOS>SUBSTRUCTURE
     1 B36         1 TEMP              0 ****  ****    0 ROOT
