@<TRIPOS>MOLECULE
B37
   65    70     1     0     0
SMALL
No Charge or Current Charge


@<TRIPOS>ATOM
      1 C4          -7.1200     0.7380     0.0080 ca         1 B37       0.275000
      2 C6          -8.9940    -0.5700    -0.4420 ca         1 B37       0.372300
      3 C10         -4.5160     1.0310     1.1070 ca         1 B37      -0.077300
      4 C20         -3.1150     1.1860     1.6890 c3         1 B37      -0.028100
      5 C21         -2.0110     0.4600     0.8650 c6         1 B37      -0.056700
      6 C24         -1.8980     1.0090    -0.5770 c6         1 B37      -0.096900
      7 C28         -0.6290     0.5780     1.5460 c6         1 B37      -0.096900
      8 C1          -8.4210    -1.6950     0.1760 ca         1 B37      -0.164000
      9 C2          -7.1370    -1.5890     0.7310 ca         1 B37      -0.061000
     10 C3          -6.4740    -0.3520     0.6460 ca         1 B37      -0.084000
     11 N5          -8.3610     0.6210    -0.5240 nb         1 B37      -0.669000
     12 C9          -5.1840    -0.2040     1.1900 ca         1 B37      -0.090000
     13 C11         -5.1510     2.1170     0.4760 ca         1 B37      -0.100000
     14 C12         -6.4400     1.9670    -0.0660 ca         1 B37      -0.081000
     15 C16        -10.3820    -0.6330    -1.0520 c3         1 B37      -0.149400
     16 C25         -0.7940     0.2840    -1.3810 c6         1 B37       0.098000
     17 N26          0.5310     0.2510    -0.6960 n          1 B37      -0.402800
     18 C27          0.4670    -0.1560     0.7400 c6         1 B37       0.098000
     19 C38          1.6880    -0.0470    -1.4530 c          1 B37       0.613700
     20 C39          3.0400     0.0390    -0.7770 ca         1 B37      -0.090600
     21 C40          3.4710     1.1280     0.0300 ca         1 B37      -0.064000
     22 C41          4.7460     1.0480     0.6550 ca         1 B37       0.276000
     23 N42          5.5690    -0.0090     0.4820 nb         1 B37      -0.665000
     24 C43          5.2070    -1.0230    -0.3330 cp         1 B37       0.426500
     25 C44          3.9450    -1.0240    -0.9680 ca         1 B37      -0.126000
     26 C46          2.6840     2.2930     0.2070 ca         1 B37      -0.092000
     27 C47          3.1320     3.3400     1.0260 ca         1 B37      -0.106000
     28 C48          4.3730     3.2460     1.6690 ca         1 B37      -0.102000
     29 C49          5.1730     2.1090     1.4770 ca         1 B37      -0.082000
     30 C54          6.1980    -2.1460    -0.5010 cp         1 B37      -0.155500
     31 C55          6.1820    -2.9850    -1.6500 ca         1 B37      -0.079500
     32 C56          7.1070    -4.0320    -1.8030 ca         1 B37      -0.119000
     33 C57          8.0740    -4.2700    -0.8150 ca         1 B37      -0.096000
     34 C58          8.1180    -3.4550     0.3260 ca         1 B37      -0.119000
     35 C59          7.1950    -2.4070     0.4810 ca         1 B37      -0.079500
     36 O65          1.6120    -0.3110    -2.6480 o          1 B37      -0.587100
     37 H20         -2.8640     2.2500     1.7830 hc         1 B37       0.049200
     38 H20A        -3.1170     0.7970     2.7150 hc         1 B37       0.049200
     39 H21         -2.2920    -0.6020     0.8210 hc         1 B37       0.048700
     40 H24         -2.8540     0.9010    -1.1050 hc         1 B37       0.052700
     41 H24A        -1.6760     2.0850    -0.5490 hc         1 B37       0.052700
     42 H28         -0.3520     1.6360     1.6510 hc         1 B37       0.052700
     43 H28A        -0.6710     0.1640     2.5630 hc         1 B37       0.052700
     44 H1          -8.9660    -2.6340     0.2230 ha         1 B37       0.122000
     45 H2          -6.6710    -2.4450     1.2140 ha         1 B37       0.118000
     46 H9          -4.6990    -1.0470     1.6760 ha         1 B37       0.112000
     47 H11         -4.6470     3.0780     0.4010 ha         1 B37       0.115000
     48 H12         -6.9190     2.8130    -0.5520 ha         1 B37       0.132000
     49 H16        -11.1260    -0.2140    -0.3660 hc         1 B37       0.053367
     50 H16A       -10.4310    -0.0690    -1.9910 hc         1 B37       0.053367
     51 H16B       -10.6730    -1.6660    -1.2730 hc         1 B37       0.053367
     52 H25         -1.1120    -0.7510    -1.5740 h1         1 B37       0.059200
     53 H25A        -0.6920     0.7790    -2.3570 h1         1 B37       0.059200
     54 H27          1.4300     0.0110     1.2390 h1         1 B37       0.059200
     55 H27A         0.2730    -1.2370     0.7830 h1         1 B37       0.059200
     56 H44          3.6510    -1.8670    -1.5840 ha         1 B37       0.132000
     57 H46          1.7280     2.4140    -0.2930 ha         1 B37       0.122000
     58 H47          2.5170     4.2280     1.1590 ha         1 B37       0.116000
     59 H48          4.7220     4.0570     2.3050 ha         1 B37       0.118000
     60 H49          6.1420     2.0490     1.9640 ha         1 B37       0.132000
     61 H55          5.4590    -2.8190    -2.4440 ha         1 B37       0.122500
     62 H56          7.0750    -4.6590    -2.6920 ha         1 B37       0.114500
     63 H57          8.7900    -5.0810    -0.9340 ha         1 B37       0.113000
     64 H58          8.8680    -3.6360     1.0940 ha         1 B37       0.114500
     65 H59          7.2500    -1.7950     1.3790 ha         1 B37       0.122500
@<TRIPOS>BOND
     1     1    10 ar  
     2     1    11 ar  
     3     1    14 ar  
     4     2     8 ar  
     5     2    11 ar  
     6     2    15 1   
     7     3     4 1   
     8     3    12 ar  
     9     3    13 ar  
    10     4     5 1   
    11     4    37 1   
    12     4    38 1   
    13     5     6 1   
    14     5     7 1   
    15     5    39 1   
    16     6    16 1   
    17     6    40 1   
    18     6    41 1   
    19     7    18 1   
    20     7    42 1   
    21     7    43 1   
    22     8     9 ar  
    23     8    44 1   
    24     9    10 ar  
    25     9    45 1   
    26    10    12 ar  
    27    12    46 1   
    28    13    14 ar  
    29    13    47 1   
    30    14    48 1   
    31    15    49 1   
    32    15    50 1   
    33    15    51 1   
    34    16    17 1   
    35    16    52 1   
    36    16    53 1   
    37    17    18 1   
    38    17    19 1   
    39    18    54 1   
    40    18    55 1   
    41    19    20 1   
    42    19    36 2   
    43    20    21 ar  
    44    20    25 ar  
    45    21    22 ar  
    46    21    26 ar  
    47    22    23 ar  
    48    22    29 ar  
    49    23    24 ar  
    50    24    25 ar  
    51    24    30 1   
    52    25    56 1   
    53    26    27 ar  
    54    26    57 1   
    55    27    28 ar  
    56    27    58 1   
    57    28    29 ar  
    58    28    59 1   
    59    29    60 1   
    60    30    31 ar  
    61    30    35 ar  
    62    31    32 ar  
    63    31    61 1   
    64    32    33 ar  
    65    32    62 1   
    66    33    34 ar  
    67    33    63 1   
    68    34    35 ar  
    69    34    64 1   
    70    35    65 1   
@<TRIPOS>SUBSTRUCTURE
     1 B37         1 TEMP              0 ****  ****    0 ROOT
