@<TRIPOS>MOLECULE
B37
   65    70     1     0     0
SMALL
bcc


@<TRIPOS>ATOM
      1 C4          -6.7460     1.0020     0.0730 ca         1 B37       0.405600
      2 C6          -8.8940     0.2200    -0.1580 ca         1 B37       0.437600
      3 C10         -4.0940     0.7610     1.0160 ca         1 B37      -0.077300
      4 C20         -2.6740     0.6470     1.4950 c3         1 B37      -0.028100
      5 C21         -1.8030    -0.2700     0.6300 c6         1 B37      -0.056700
      6 C24         -1.7500     0.1770    -0.8300 c6         1 B37      -0.096900
      7 C28         -0.3940    -0.3580     1.2150 c6         1 B37      -0.096900
      8 C1          -8.5720    -0.9650     0.5590 ca         1 B37      -0.247300
      9 C2          -7.3070    -1.1410     1.0300 ca         1 B37      -0.079000
     10 C3          -6.3340    -0.1410     0.7970 ca         1 B37      -0.149300
     11 N5          -8.0130     1.1580    -0.3880 nb         1 B37      -0.669000
     12 C9          -5.0050    -0.2370     1.2570 ca         1 B37      -0.108000
     13 C11         -4.5160     1.8970     0.2860 ca         1 B37      -0.118000
     14 C12         -5.8000     2.0200    -0.1730 ca         1 B37      -0.164300
     15 C16        -10.2870     0.4070    -0.6750 c3         1 B37      -0.149400
     16 C25         -0.7900    -0.6830    -1.6430 c6         1 B37       0.098000
     17 N26          0.5290    -0.6710    -1.0290 n          1 B37      -0.469800
     18 C27          0.5340    -1.1800     0.3330 c6         1 B37       0.098000
     19 C38          1.5750    -0.1010    -1.6410 c          1 B37       0.680700
     20 C39          2.8460     0.0180    -0.8490 ca         1 B37      -0.090600
     21 C40          3.0580     1.1590    -0.0340 ca         1 B37      -0.129300
     22 C41          4.3030     1.2420     0.6380 ca         1 B37       0.406600
     23 N42          5.2610     0.2990     0.5110 nb         1 B37      -0.665000
     24 C43          5.0510    -0.7380    -0.2610 cp         1 B37       0.491800
     25 C44          3.8340    -0.9150    -0.9680 ca         1 B37      -0.209300
     26 C46          2.1070     2.1880     0.1440 ca         1 B37      -0.110000
     27 C47          2.3840     3.2530     0.9580 ca         1 B37      -0.124000
     28 C48          3.6210     3.3350     1.6280 ca         1 B37      -0.120000
     29 C49          4.5610     2.3530     1.4720 ca         1 B37      -0.165300
     30 C54          6.1340    -1.7420    -0.3500 cp         1 B37      -0.155500
     31 C55          6.2480    -2.5950    -1.4490 ca         1 B37      -0.097500
     32 C56          7.2750    -3.5260    -1.5180 ca         1 B37      -0.137000
     33 C57          8.1990    -3.6230    -0.4870 ca         1 B37      -0.114000
     34 C58          8.0950    -2.7770     0.6110 ca         1 B37      -0.137000
     35 C59          7.0750    -1.8420     0.6770 ca         1 B37      -0.097500
     36 O65          1.5570     0.3430    -2.7810 o          1 B37      -0.587100
     37 H20         -2.2170     1.6400     1.5300 hc         1 B37       0.049200
     38 H20A        -2.6630     0.2670     2.5200 hc         1 B37       0.049200
     39 H21         -2.2390    -1.2770     0.6540 hc         1 B37       0.048700
     40 H24         -2.7420     0.1170    -1.2820 hc         1 B37       0.052700
     41 H24A        -1.4370     1.2250    -0.8930 hc         1 B37       0.052700
     42 H28          0.0230     0.6470     1.3400 hc         1 B37       0.052700
     43 H28A        -0.4310    -0.8090     2.2090 hc         1 B37       0.052700
     44 H1          -9.3380    -1.7120     0.7240 ha         1 B37       0.140000
     45 H2          -7.0370    -2.0340     1.5820 ha         1 B37       0.136000
     46 H9          -4.7090    -1.1200     1.8150 ha         1 B37       0.130000
     47 H11         -3.8010     2.6890     0.0940 ha         1 B37       0.133000
     48 H12         -6.1110     2.8970    -0.7260 ha         1 B37       0.150000
     49 H16        -11.0150     0.3380     0.1350 hc         1 B37       0.053367
     50 H16A       -10.3950     1.3750    -1.1590 hc         1 B37       0.053367
     51 H16B       -10.5400    -0.3710    -1.3970 hc         1 B37       0.053367
     52 H25         -1.1450    -1.7180    -1.6740 h1         1 B37       0.059200
     53 H25A        -0.7160    -0.3300    -2.6670 h1         1 B37       0.059200
     54 H27          1.5450    -1.1870     0.7330 h1         1 B37       0.059200
     55 H27A         0.1970    -2.2210     0.3030 h1         1 B37       0.059200
     56 H44          3.6750    -1.7980    -1.5710 ha         1 B37       0.150000
     57 H46          1.1540     2.1440    -0.3680 ha         1 B37       0.140000
     58 H47          1.6500     4.0360     1.0890 ha         1 B37       0.134000
     59 H48          3.8260     4.1840     2.2680 ha         1 B37       0.136000
     60 H49          5.5160     2.4040     1.9800 ha         1 B37       0.150000
     61 H55          5.5510    -2.5270    -2.2740 ha         1 B37       0.140500
     62 H56          7.3530    -4.1720    -2.3820 ha         1 B37       0.132500
     63 H57          8.9980    -4.3510    -0.5390 ha         1 B37       0.131000
     64 H58          8.8090    -2.8490     1.4210 ha         1 B37       0.132500
     65 H59          6.9990    -1.1860     1.5340 ha         1 B37       0.140500
@<TRIPOS>BOND
     1     1    10 ar  
     2     1    11 ar  
     3     1    14 ar  
     4     2     8 ar  
     5     2    11 ar  
     6     2    15 1   
     7     3     4 1   
     8     3    12 ar  
     9     3    13 ar  
    10     4     5 1   
    11     4    37 1   
    12     4    38 1   
    13     5     6 1   
    14     5     7 1   
    15     5    39 1   
    16     6    16 1   
    17     6    40 1   
    18     6    41 1   
    19     7    18 1   
    20     7    42 1   
    21     7    43 1   
    22     8     9 ar  
    23     8    44 1   
    24     9    10 ar  
    25     9    45 1   
    26    10    12 ar  
    27    12    46 1   
    28    13    14 ar  
    29    13    47 1   
    30    14    48 1   
    31    15    49 1   
    32    15    50 1   
    33    15    51 1   
    34    16    17 1   
    35    16    52 1   
    36    16    53 1   
    37    17    18 1   
    38    17    19 1   
    39    18    54 1   
    40    18    55 1   
    41    19    20 1   
    42    19    36 2   
    43    20    21 ar  
    44    20    25 ar  
    45    21    22 ar  
    46    21    26 ar  
    47    22    23 ar  
    48    22    29 ar  
    49    23    24 ar  
    50    24    25 ar  
    51    24    30 1   
    52    25    56 1   
    53    26    27 ar  
    54    26    57 1   
    55    27    28 ar  
    56    27    58 1   
    57    28    29 ar  
    58    28    59 1   
    59    29    60 1   
    60    30    31 ar  
    61    30    35 ar  
    62    31    32 ar  
    63    31    61 1   
    64    32    33 ar  
    65    32    62 1   
    66    33    34 ar  
    67    33    63 1   
    68    34    35 ar  
    69    34    64 1   
    70    35    65 1   
@<TRIPOS>SUBSTRUCTURE
     1 B37         1 TEMP              0 ****  ****    0 ROOT
