@<TRIPOS>MOLECULE
B38
   49    53     1     0     0
SMALL
abcg2


@<TRIPOS>ATOM
      1 C4          39.2590   -35.0090    62.5890 c6         1 B38      -0.104900
      2 C7          38.4090   -37.6290    59.8730 c          1 B38       0.591700
      3 C6          36.5350   -36.1060    60.4410 ca         1 B38       0.177100
      4 C9          37.2570   -36.4990    64.0920 c6         1 B38       0.100500
      5 C13         36.1550   -37.8520    58.8090 ca         1 B38      -0.018000
      6 C8          38.5000   -34.4100    63.7700 c6         1 B38       0.100500
      7 C1          38.4600   -36.1020    61.8890 c6         1 B38       0.195000
      8 O2          37.2930   -35.4250    61.3330 os         1 B38      -0.356100
      9 C3          39.2540   -36.7370    60.7540 c6         1 B38      -0.205400
     10 C5          37.9860   -37.1390    62.9130 c6         1 B38      -0.104900
     11 C10         37.0120   -37.2060    59.7130 ca         1 B38      -0.257600
     12 C11         35.2260   -35.6630    60.2450 ca         1 B38      -0.158000
     13 C14         34.4100   -36.3130    59.3390 ca         1 B38      -0.048000
     14 C15         34.8550   -37.4250    58.6020 ca         1 B38      -0.124300
     15 N27         38.0810   -35.4560    64.7030 n          1 B38      -0.417800
     16 C20         38.1110   -36.5720    66.8740 ca         1 B38      -0.170600
     17 C21         36.3080   -37.5680    68.2300 ca         1 B38      -0.239900
     18 C18         38.5260   -38.4370    68.3980 ca         1 B38      -0.159000
     19 C19         38.9710   -37.4830    67.4630 ca         1 B38      -0.025000
     20 C26         38.6370   -35.5310    65.9340 c          1 B38       0.614700
     21 C17         37.2030   -38.4900    68.7900 ca         1 B38      -0.016000
     22 C22         36.7670   -36.6250    67.2800 ca         1 B38      -0.008200
     23 N23         35.6810   -35.8830    66.9330 na         1 B38      -0.076400
     24 N24         34.5620   -36.2770    67.5920 nc         1 B38      -0.511100
     25 C25         34.9180   -37.2820    68.3680 cd         1 B38       0.362800
     26 O28         39.5230   -34.7610    66.3180 o          1 B38      -0.593100
     27 H4          40.1970   -35.4440    62.9390 hc         1 B38       0.065950
     28 H4A         39.5010   -34.2240    61.8690 hc         1 B38       0.065950
     29 H9          36.3190   -36.0500    63.7590 h1         1 B38       0.067450
     30 H9A         37.0220   -37.2600    64.8290 h1         1 B38       0.067450
     31 H13         36.5450   -38.6990    58.2590 ha         1 B38       0.132000
     32 H8          39.1210   -33.7020    64.3070 h1         1 B38       0.067450
     33 H8A         37.6040   -33.8950    63.4180 h1         1 B38       0.067450
     34 H16         33.0210   -38.4410    58.1060 hc         1 B38       0.043700
     35 H16A        33.6530   -37.4280    56.8160 hc         1 B38       0.043700
     36 H16B        34.4250   -38.9760    57.1730 hc         1 B38       0.043700
     37 H3          40.0980   -37.3040    61.1450 hc         1 B38       0.085200
     38 H3A         39.6530   -35.9440    60.1100 hc         1 B38       0.085200
     39 H5          38.8640   -37.6780    63.2790 hc         1 B38       0.065950
     40 H5A         37.3270   -37.8710    62.4420 hc         1 B38       0.065950
     41 H11         34.8670   -34.8170    60.8150 ha         1 B38       0.130000
     42 H14         33.3950   -35.9590    59.1990 ha         1 B38       0.117000
     43 H18         39.2410   -39.1360    68.8130 ha         1 B38       0.121000
     44 H19         40.0180   -37.4620    67.1850 ha         1 B38       0.126000
     45 H17         36.8650   -39.2220    69.5120 ha         1 B38       0.122000
     46 H25         34.1910   -37.7690    68.9980 h4         1 B38       0.051800
     47 HN23        35.6330   -35.1050    66.2960 hn         1 B38       0.383000
     48 O12         38.8830   -38.6000    59.3020 o          1 B38      -0.523100
     49 C16         33.9420   -38.1080    57.6210 c3         1 B38      -0.040800
@<TRIPOS>BOND
     1     1     6 1   
     2     1     7 1   
     3     1    27 1   
     4     1    28 1   
     5     2     9 1   
     6     2    11 1   
     7     2    48 2   
     8     3     8 1   
     9     3    11 ar  
    10     3    12 ar  
    11     4    10 1   
    12     4    15 1   
    13     4    29 1   
    14     4    30 1   
    15     5    11 ar  
    16     5    14 ar  
    17     5    31 1   
    18     6    15 1   
    19     6    32 1   
    20     6    33 1   
    21     7     8 1   
    22     7     9 1   
    23     7    10 1   
    24     9    37 1   
    25     9    38 1   
    26    10    39 1   
    27    10    40 1   
    28    12    13 ar  
    29    12    41 1   
    30    13    14 ar  
    31    13    42 1   
    32    14    49 1   
    33    15    20 1   
    34    16    19 ar  
    35    16    20 1   
    36    16    22 ar  
    37    17    21 ar  
    38    17    22 ar  
    39    17    25 1   
    40    18    19 ar  
    41    18    21 ar  
    42    18    43 1   
    43    19    44 1   
    44    20    26 2   
    45    21    45 1   
    46    22    23 1   
    47    23    24 1   
    48    23    47 1   
    49    24    25 2   
    50    25    46 1   
    51    34    49 1   
    52    35    49 1   
    53    36    49 1   
@<TRIPOS>SUBSTRUCTURE
     1 B38         1 TEMP              0 ****  ****    0 ROOT
