@<TRIPOS>MOLECULE
B38
   49    53     1     0     0
SMALL
No Charge or Current Charge


@<TRIPOS>ATOM
      1 C4          39.2130   -34.9450    62.6010 c6         1 B38      -0.104900
      2 C7          38.3900   -37.5490    59.8370 c          1 B38       0.591700
      3 C6          36.4350   -36.0870    60.3880 ca         1 B38       0.177100
      4 C9          37.2790   -36.5800    64.1030 c6         1 B38       0.100500
      5 C13         36.1450   -37.8150    58.6970 ca         1 B38      -0.018000
      6 C8          38.4510   -34.4100    63.8360 c6         1 B38       0.100500
      7 C1          38.3980   -36.0340    61.8550 c6         1 B38       0.195000
      8 O2          37.1990   -35.4260    61.3260 os         1 B38      -0.356100
      9 C3          39.2270   -36.6030    60.6840 c6         1 B38      -0.205400
     10 C5          38.0190   -37.1510    62.8710 c6         1 B38      -0.104900
     11 C10         36.9640   -37.1500    59.6340 ca         1 B38      -0.257600
     12 C11         35.1120   -35.6710    60.1870 ca         1 B38      -0.158000
     13 C14         34.2980   -36.3290    59.2500 ca         1 B38      -0.048000
     14 C15         34.8100   -37.4080    58.5050 ca         1 B38      -0.124300
     15 N27         38.0750   -35.5080    64.7660 n          1 B38      -0.417800
     16 C20         38.2210   -36.6780    66.9850 ca         1 B38      -0.170600
     17 C21         36.3500   -37.5280    68.2630 ca         1 B38      -0.239900
     18 C18         38.5360   -38.4060    68.7130 ca         1 B38      -0.159000
     19 C19         39.0660   -37.5410    67.7250 ca         1 B38      -0.025000
     20 C26         38.8110   -35.7540    65.9480 c          1 B38       0.614700
     21 C17         37.1540   -38.4100    68.9940 ca         1 B38      -0.016000
     22 C22         36.8490   -36.6960    67.3120 ca         1 B38      -0.008200
     23 N23         35.8030   -35.9160    66.8450 na         1 B38      -0.076400
     24 N24         34.5990   -36.2650    67.4850 nc         1 B38      -0.511100
     25 C25         34.9370   -37.2460    68.3390 cd         1 B38       0.362800
     26 O28         39.8660   -35.1720    66.1680 o          1 B38      -0.593100
     27 H4          40.1790   -35.3560    62.9240 hc         1 B38       0.065950
     28 H4A         39.4410   -34.1120    61.9220 hc         1 B38       0.065950
     29 H9          36.3090   -36.1670    63.7900 h1         1 B38       0.067450
     30 H9A         37.0710   -37.4070    64.7960 h1         1 B38       0.067450
     31 H13         36.5440   -38.6420    58.1110 ha         1 B38       0.132000
     32 H8          39.0660   -33.6590    64.3520 h1         1 B38       0.067450
     33 H8A         37.5360   -33.8960    63.5070 h1         1 B38       0.067450
     34 H16         32.8710   -38.0630    57.7620 hc         1 B38       0.043700
     35 H16A        34.0450   -37.6770    56.4930 hc         1 B38       0.043700
     36 H16B        34.1910   -39.1850    57.4120 hc         1 B38       0.043700
     37 H3          40.1630   -37.0850    60.9950 hc         1 B38       0.085200
     38 H3A         39.4690   -35.7520    60.0340 hc         1 B38       0.085200
     39 H5          38.9280   -37.6680    63.2080 hc         1 B38       0.065950
     40 H5A         37.3910   -37.9170    62.3970 hc         1 B38       0.065950
     41 H11         34.7140   -34.8420    60.7660 ha         1 B38       0.130000
     42 H14         33.2710   -36.0000    59.1040 ha         1 B38       0.117000
     43 H18         39.2000   -39.0680    69.2640 ha         1 B38       0.121000
     44 H19         40.1370   -37.5510    67.5280 ha         1 B38       0.126000
     45 H17         36.7350   -39.0620    69.7580 ha         1 B38       0.122000
     46 H25         34.1730   -37.6910    68.9650 h4         1 B38       0.051800
     47 HN23        35.8580   -35.1760    66.1470 hn         1 B38       0.383000
     48 O12         38.8530   -38.5930    59.3950 o          1 B38      -0.523100
     49 C16         33.9320   -38.1220    57.4890 c3         1 B38      -0.040800
@<TRIPOS>BOND
     1     1     6 1   
     2     1     7 1   
     3     1    27 1   
     4     1    28 1   
     5     2     9 1   
     6     2    11 1   
     7     2    48 2   
     8     3     8 1   
     9     3    11 ar  
    10     3    12 ar  
    11     4    10 1   
    12     4    15 1   
    13     4    29 1   
    14     4    30 1   
    15     5    11 ar  
    16     5    14 ar  
    17     5    31 1   
    18     6    15 1   
    19     6    32 1   
    20     6    33 1   
    21     7     8 1   
    22     7     9 1   
    23     7    10 1   
    24     9    37 1   
    25     9    38 1   
    26    10    39 1   
    27    10    40 1   
    28    12    13 ar  
    29    12    41 1   
    30    13    14 ar  
    31    13    42 1   
    32    14    49 1   
    33    15    20 1   
    34    16    19 ar  
    35    16    20 1   
    36    16    22 ar  
    37    17    21 ar  
    38    17    22 ar  
    39    17    25 1   
    40    18    19 ar  
    41    18    21 ar  
    42    18    43 1   
    43    19    44 1   
    44    20    26 2   
    45    21    45 1   
    46    22    23 1   
    47    23    24 1   
    48    23    47 1   
    49    24    25 2   
    50    25    46 1   
    51    34    49 1   
    52    35    49 1   
    53    36    49 1   
@<TRIPOS>SUBSTRUCTURE
     1 B38         1 TEMP              0 ****  ****    0 ROOT
