@<TRIPOS>MOLECULE
B39
   56    60     1     0     0
SMALL
No Charge or Current Charge


@<TRIPOS>ATOM
      1 C4           8.8370    89.4150    41.8850 c5         1 B39       0.089300
      2 C5          10.3900    89.4900    42.0870 c5         1 B39      -0.081400
      3 C6          10.7660    90.9920    41.8620 c5         1 B39      -0.123700
      4 C8          12.2210    91.2200    41.3860 c3         1 B39       0.222600
      5 C10          7.3000    88.2070    45.0310 cc         1 B39      -0.204200
      6 C13          7.2500    87.6380    42.8300 ca         1 B39       0.155500
      7 C15          5.9960    85.9430    41.9240 ca         1 B39       0.178900
      8 C17          5.8800    86.2080    44.1960 ca         1 B39       0.434900
      9 C20          5.7500    85.6300    47.7550 c5         1 B39      -0.101400
     10 C21          6.5040    83.8250    46.4130 ca         1 B39      -0.117300
     11 C22          6.4750    83.3770    47.7200 ca         1 B39      -0.080300
     12 C24          6.7680    81.0940    46.9640 ca         1 B39      -0.103000
     13 C26          6.6780    82.9250    45.3480 ca         1 B39      -0.083000
     14 C19          6.3130    84.5050    48.7040 c5         1 B39      -0.031100
     15 C23          6.6060    82.0120    48.0210 ca         1 B39      -0.099000
     16 C25          6.8060    81.5510    45.6300 ca         1 B39      -0.114000
     17 C1           6.3700    85.3260    46.3330 c5         1 B39       0.287800
     18 N18          5.3230    85.8000    45.3980 nu         1 B39      -0.923100
     19 N16          5.4730    85.5380    43.1060 nb         1 B39      -0.306000
     20 N14          6.8700    86.9580    41.7290 nb         1 B39      -0.235000
     21 C12          6.7660    87.2910    44.0680 ca         1 B39      -0.249800
     22 C11          8.1180    89.0790    44.3340 cd         1 B39      -0.183100
     23 N7           8.1030    88.7330    42.9590 na         1 B39      -0.190400
     24 C3           8.4150    90.8980    41.6590 c5         1 B39      -0.087400
     25 C2           9.6360    91.4870    40.9150 c5         1 B39       0.172300
     26 O9           9.7530    90.9830    39.5830 oh         1 B39      -0.674000
     27 O27         12.4230    92.6360    41.2300 os         1 B39      -0.592700
     28 S28         12.7770    93.1570    39.7340 s6         1 B39       1.437800
     29 O29         14.2210    93.1480    39.5350 o          1 B39      -0.586500
     30 O30         11.8320    92.6060    38.7640 o          1 B39      -0.586500
     31 N31         12.3780    94.6800    40.0170 n8         1 B39      -1.041100
     32 H4           8.6520    88.8700    40.9490 h1         1 B39       0.109700
     33 H5          10.7020    89.1490    43.0810 hc         1 B39       0.060700
     34 H5A         10.8930    88.8340    41.3650 hc         1 B39       0.060700
     35 H6          10.6910    91.5260    42.8170 hc         1 B39       0.071700
     36 H8          12.9060    90.8250    42.1480 h1         1 B39       0.066700
     37 H8A         12.4030    90.6550    40.4600 h1         1 B39       0.066700
     38 H10          7.1010    88.2390    46.1010 ha         1 B39       0.201000
     39 H15          5.6780    85.3960    41.0380 h5         1 B39       0.045100
     40 H20A         5.9980    86.6370    48.1070 hc         1 B39       0.057700
     41 H24          6.8710    80.0330    47.1790 ha         1 B39       0.114000
     42 H26          6.7160    83.2800    44.3210 ha         1 B39       0.124000
     43 H19          7.2740    84.7920    49.1470 hc         1 B39       0.056200
     44 H19A         5.6240    84.2690    49.5230 hc         1 B39       0.056200
     45 H23          6.5840    81.6680    49.0520 ha         1 B39       0.116000
     46 H25          6.9380    80.8400    44.8170 ha         1 B39       0.116000
     47 H1           7.3560    85.8020    46.2200 h1         1 B39       0.075700
     48 HN18         4.5380    85.1700    45.2450 hn         1 B39       0.505000
     49 H11          8.7010    89.9180    44.7080 h4         1 B39       0.213000
     50 H3           7.4900    90.9790    41.0780 hc         1 B39       0.065700
     51 H3A          8.2420    91.4210    42.6070 hc         1 B39       0.065700
     52 H2           9.5860    92.5850    40.8950 h1         1 B39       0.045700
     53 HO9         10.4370    91.5460    39.1360 ho         1 B39       0.475000
     54 HN31        12.2340    94.5580    41.0160 hn         1 B39       0.495500
     55 HN3A        13.3090    95.0790    39.9570 hn         1 B39       0.495500
     56 H20          4.6550    85.5650    47.7430 hc         1 B39       0.057700
@<TRIPOS>BOND
     1     1     2 1   
     2     1    23 1   
     3     1    24 1   
     4     1    32 1   
     5     2     3 1   
     6     2    33 1   
     7     2    34 1   
     8     3     4 1   
     9     3    25 1   
    10     3    35 1   
    11     4    27 1   
    12     4    36 1   
    13     4    37 1   
    14     5    21 1   
    15     5    22 2   
    16     5    38 1   
    17     6    20 ar  
    18     6    21 ar  
    19     6    23 1   
    20     7    19 ar  
    21     7    20 ar  
    22     7    39 1   
    23     8    18 1   
    24     8    19 ar  
    25     8    21 ar  
    26     9    14 1   
    27     9    17 1   
    28     9    40 1   
    29     9    56 1   
    30    10    11 ar  
    31    10    13 ar  
    32    10    17 1   
    33    11    14 1   
    34    11    15 ar  
    35    12    15 ar  
    36    12    16 ar  
    37    12    41 1   
    38    13    16 ar  
    39    13    42 1   
    40    14    43 1   
    41    14    44 1   
    42    15    45 1   
    43    16    46 1   
    44    17    18 1   
    45    17    47 1   
    46    18    48 1   
    47    22    23 1   
    48    22    49 1   
    49    24    25 1   
    50    24    50 1   
    51    24    51 1   
    52    25    26 1   
    53    25    52 1   
    54    26    53 1   
    55    27    28 1   
    56    28    29 2   
    57    28    30 2   
    58    28    31 1   
    59    31    54 1   
    60    31    55 1   
@<TRIPOS>SUBSTRUCTURE
     1 B39         1 TEMP              0 ****  ****    0 ROOT
