@<TRIPOS>MOLECULE
B39
   56    60     1     0     0
SMALL
abcg2


@<TRIPOS>ATOM
      1 C4           8.8130    89.4520    41.7430 c5         1 B39       0.089300
      2 C5          10.3530    89.4310    41.5460 c5         1 B39      -0.081400
      3 C6          10.8210    90.8830    41.7670 c5         1 B39      -0.123700
      4 C8          12.0460    91.2080    40.9500 c3         1 B39       0.222600
      5 C10          8.0950    87.3800    44.6730 cc         1 B39      -0.204200
      6 C13          7.4250    87.5000    42.4940 ca         1 B39       0.155500
      7 C15          5.9410    86.2650    41.3910 ca         1 B39       0.178900
      8 C17          6.3140    85.7040    43.6060 ca         1 B39       0.434900
      9 C20          5.7410    85.7680    46.9470 c5         1 B39      -0.101400
     10 C21          6.4420    83.5040    46.6200 ca         1 B39      -0.117300
     11 C22          6.1040    83.6380    47.9660 ca         1 B39      -0.080300
     12 C24          6.2470    81.2560    48.2200 ca         1 B39      -0.103000
     13 C26          6.6870    82.2570    46.0630 ca         1 B39      -0.083000
     14 C19          5.9100    85.0920    48.3220 c5         1 B39      -0.031100
     15 C23          6.0070    82.5130    48.7740 ca         1 B39      -0.099000
     16 C25          6.5850    81.1270    46.8730 ca         1 B39      -0.114000
     17 C1           6.5160    84.8620    45.9580 c5         1 B39       0.287800
     18 N18          6.0080    84.8480    44.6040 nu         1 B39      -0.923100
     19 N16          5.6660    85.4870    42.4400 nb         1 B39      -0.306000
     20 N14          6.7980    87.2760    41.3290 nb         1 B39      -0.235000
     21 C12          7.2420    86.7690    43.6920 ca         1 B39      -0.249800
     22 C11          8.7380    88.4120    44.0500 cd         1 B39      -0.183100
     23 N7           8.3380    88.4890    42.7270 na         1 B39      -0.190400
     24 C3           8.4610    90.9090    42.1040 c5         1 B39      -0.087400
     25 C2           9.5690    91.7340    41.4680 c5         1 B39       0.172300
     26 O9           9.3000    91.8290    40.0660 oh         1 B39      -0.674000
     27 O27         12.5050    92.5670    41.2850 os         1 B39      -0.592700
     28 S28         12.6710    93.6000    40.1040 s6         1 B39       1.437800
     29 O29         13.8510    93.2970    39.3420 o          1 B39      -0.586500
     30 O30         11.4120    93.6700    39.3950 o          1 B39      -0.586500
     31 N31         12.9560    94.9270    40.9860 n8         1 B39      -1.041100
     32 H4           8.3220    89.1750    40.8150 h1         1 B39       0.109700
     33 H5          10.8370    88.7430    42.2370 hc         1 B39       0.060700
     34 H5A         10.5890    89.0980    40.5350 hc         1 B39       0.060700
     35 H6          11.0640    91.0290    42.8230 hc         1 B39       0.071700
     36 H8          12.8780    90.5490    41.1920 h1         1 B39       0.066700
     37 H8A         11.8420    91.1420    39.8830 h1         1 B39       0.066700
     38 H10          8.2240    87.1140    45.7070 ha         1 B39       0.201000
     39 H15          5.3930    86.0400    40.4810 h5         1 B39       0.045100
     40 H20A         6.0870    86.8010    46.9270 hc         1 B39       0.057700
     41 H24          6.1650    80.3710    48.8390 ha         1 B39       0.114000
     42 H26          6.9470    82.1610    45.0150 ha         1 B39       0.124000
     43 H19          6.7990    85.4740    48.8350 hc         1 B39       0.056200
     44 H19A         5.0600    85.2580    48.9850 hc         1 B39       0.056200
     45 H23          5.7410    82.6060    49.8210 ha         1 B39       0.116000
     46 H25          6.7660    80.1450    46.4540 ha         1 B39       0.116000
     47 H1           7.5650    85.1640    45.9160 h1         1 B39       0.075700
     48 HN18         5.2540    84.2090    44.3980 hn         1 B39       0.505000
     49 H11          9.4580    89.1090    44.4430 h4         1 B39       0.213000
     50 H3           7.4720    91.2010    41.7550 hc         1 B39       0.065700
     51 H3A          8.4960    91.0420    43.1870 hc         1 B39       0.065700
     52 H2           9.6450    92.7340    41.9010 h1         1 B39       0.045700
     53 HO9          9.9270    92.4630    39.6850 ho         1 B39       0.475000
     54 HN31        13.6750    95.5150    40.5810 hn         1 B39       0.495500
     55 HN3A        12.1190    95.4340    41.2540 hn         1 B39       0.495500
     56 H20          4.6890    85.7570    46.6560 hc         1 B39       0.057700
@<TRIPOS>BOND
     1     1     2 1   
     2     1    23 1   
     3     1    24 1   
     4     1    32 1   
     5     2     3 1   
     6     2    33 1   
     7     2    34 1   
     8     3     4 1   
     9     3    25 1   
    10     3    35 1   
    11     4    27 1   
    12     4    36 1   
    13     4    37 1   
    14     5    21 1   
    15     5    22 2   
    16     5    38 1   
    17     6    20 ar  
    18     6    21 ar  
    19     6    23 1   
    20     7    19 ar  
    21     7    20 ar  
    22     7    39 1   
    23     8    18 1   
    24     8    19 ar  
    25     8    21 ar  
    26     9    14 1   
    27     9    17 1   
    28     9    40 1   
    29     9    56 1   
    30    10    11 ar  
    31    10    13 ar  
    32    10    17 1   
    33    11    14 1   
    34    11    15 ar  
    35    12    15 ar  
    36    12    16 ar  
    37    12    41 1   
    38    13    16 ar  
    39    13    42 1   
    40    14    43 1   
    41    14    44 1   
    42    15    45 1   
    43    16    46 1   
    44    17    18 1   
    45    17    47 1   
    46    18    48 1   
    47    22    23 1   
    48    22    49 1   
    49    24    25 1   
    50    24    50 1   
    51    24    51 1   
    52    25    26 1   
    53    25    52 1   
    54    26    53 1   
    55    27    28 1   
    56    28    29 2   
    57    28    30 2   
    58    28    31 1   
    59    31    54 1   
    60    31    55 1   
@<TRIPOS>SUBSTRUCTURE
     1 B39         1 TEMP              0 ****  ****    0 ROOT
