@<TRIPOS>MOLECULE
B3A
   15    14     1     0     0
SMALL
bcc


@<TRIPOS>ATOM
      1 CG           0.1890    -0.3930    -0.9050 c3         1 B3A      -0.111100
      2 CB           1.6220    -0.6230    -1.3800 c3         1 B3A       0.163500
      3 N            2.4680     0.5640    -1.2400 n8         1 B3A      -0.888800
      4 CA           1.6640    -1.0970    -2.8260 c3         1 B3A      -0.201400
      5 C            1.0160    -2.4650    -3.0990 c          1 B3A       0.926600
      6 O            1.0600    -3.3120    -2.1830 o          1 B3A      -0.849300
      7 OXT          0.5270    -2.6350    -4.2350 o          1 B3A      -0.849300
      8 HG1         -0.3010     0.3680    -1.5190 hc         1 B3A       0.023700
      9 HG2          0.1710    -0.0480     0.1310 hc         1 B3A       0.023700
     10 HG3         -0.4060    -1.3050    -0.9600 hc         1 B3A       0.023700
     11 HB           2.0670    -1.4060    -0.7590 h1         1 B3A       0.073700
     12 H            2.4240     0.8890    -0.2810 hn         1 B3A       0.308300
     13 H2           2.0700     1.3170    -1.7910 hn         1 B3A       0.308300
     14 HA1          2.7150    -1.1610    -3.1360 hc         1 B3A       0.023700
     15 HA2          1.2090    -0.3380    -3.4730 hc         1 B3A       0.023700
@<TRIPOS>BOND
     1     1     2 1   
     2     1     8 1   
     3     1     9 1   
     4     1    10 1   
     5     2     3 1   
     6     2     4 1   
     7     2    11 1   
     8     3    12 1   
     9     3    13 1   
    10     4     5 1   
    11     4    14 1   
    12     4    15 1   
    13     5     6 1   
    14     5     7 1   
@<TRIPOS>SUBSTRUCTURE
     1 B3A         1 TEMP              0 ****  ****    0 ROOT
