@<TRIPOS>MOLECULE
B3A
   15    14     1     0     0
SMALL
No Charge or Current Charge


@<TRIPOS>ATOM
      1 CG           0.1140    -0.2860    -1.0640 c3         1 B3A      -0.111100
      2 CB           1.5810    -0.6510    -1.3790 c3         1 B3A       0.163500
      3 N            2.4310     0.5260    -1.1320 n8         1 B3A      -0.888800
      4 CA           1.8140    -1.1570    -2.8190 c3         1 B3A      -0.201400
      5 C            1.0970    -2.4990    -3.0370 c          1 B3A       0.926600
      6 O            1.6710    -3.5270    -2.7000 o          1 B3A      -0.849300
      7 OXT         -0.0250    -2.4960    -3.5260 o          1 B3A      -0.849300
      8 HG1         -0.2670     0.4630    -1.7700 hc         1 B3A       0.023700
      9 HG2          0.0240     0.1200    -0.0490 hc         1 B3A       0.023700
     10 HG3         -0.5300    -1.1710    -1.1210 hc         1 B3A       0.023700
     11 HB           1.8930    -1.4400    -0.6780 h1         1 B3A       0.073700
     12 H            2.2200     0.8970    -0.2010 hn         1 B3A       0.308300
     13 H2           2.1520     1.2730    -1.7740 hn         1 B3A       0.308300
     14 HA1          2.8980    -1.3070    -2.9050 hc         1 B3A       0.023700
     15 HA2          1.4210    -0.3910    -3.5000 hc         1 B3A       0.023700
@<TRIPOS>BOND
     1     1     2 1   
     2     1     8 1   
     3     1     9 1   
     4     1    10 1   
     5     2     3 1   
     6     2     4 1   
     7     2    11 1   
     8     3    12 1   
     9     3    13 1   
    10     4     5 1   
    11     4    14 1   
    12     4    15 1   
    13     5     6 1   
    14     5     7 1   
@<TRIPOS>SUBSTRUCTURE
     1 B3A         1 TEMP              0 ****  ****    0 ROOT
