@<TRIPOS>MOLECULE
B3B
   35    37     1     0     0
SMALL
No Charge or Current Charge


@<TRIPOS>ATOM
      1 O8          -3.8850    -2.7940     0.7590 o          1 B3B      -0.518100
      2 C7          -3.6250    -1.6020     0.8990 c          1 B3B       0.593500
      3 C5          -4.5000    -0.4960     0.3490 ca         1 B3B      -0.161600
      4 C6          -4.0240     0.8350     0.1430 ca         1 B3B      -0.085900
      5 C1          -4.9260     1.8180    -0.3170 ca         1 B3B      -0.108000
      6 C2          -6.2710     1.5090    -0.5710 ca         1 B3B      -0.089000
      7 C3          -6.7350     0.2020    -0.3780 ca         1 B3B      -0.110000
      8 C4          -5.8560    -0.7920     0.0780 ca         1 B3B      -0.066000
      9 C9          -2.5880     1.2500     0.2900 ce         1 B3B       0.368800
     10 N10         -1.5960     0.4360     0.0700 n2         1 B3B      -0.395400
     11 N11         -0.2910     0.8700     0.1540 nu         1 B3B      -0.611200
     12 C12          0.8160     0.0880    -0.0600 cc         1 B3B       0.695300
     13 N13          1.9940     0.6580     0.0570 nd         1 B3B      -0.717000
     14 C14          2.9880    -0.2810    -0.1910 cd         1 B3B       0.381500
     15 C15          2.5240    -1.5460    -0.4910 cc         1 B3B      -0.290000
     16 S16          0.7850    -1.6080    -0.4720 ss         1 B3B       0.007600
     17 C17          4.4190     0.1040    -0.1250 ca         1 B3B      -0.120500
     18 C18          5.4410    -0.8420    -0.3750 ca         1 B3B      -0.085500
     19 C19          6.7960    -0.4720    -0.3110 ca         1 B3B      -0.118000
     20 C20          7.1550     0.8470     0.0040 ca         1 B3B      -0.103000
     21 C21          6.1540     1.7980     0.2550 ca         1 B3B      -0.118000
     22 C22          4.7990     1.4310     0.1910 ca         1 B3B      -0.085500
     23 H1          -2.7230    -1.2950     1.4700 h4         1 B3B       0.007200
     24 H2          -4.5770     2.8340    -0.4940 ha         1 B3B       0.115000
     25 H3          -6.9500     2.2820    -0.9260 ha         1 B3B       0.118000
     26 H4          -7.7760    -0.0410    -0.5770 ha         1 B3B       0.121000
     27 H5          -6.2400    -1.7990     0.2340 ha         1 B3B       0.133000
     28 H6          -2.4110     2.3200     0.4220 h4         1 B3B      -0.004200
     29 H7          -0.0150     1.8280     0.3830 hn         1 B3B       0.507000
     30 H8           3.0800    -2.4440    -0.7200 h4         1 B3B       0.162000
     31 H9           5.2000    -1.8730    -0.6210 ha         1 B3B       0.121000
     32 H10          7.5700    -1.2120    -0.5060 ha         1 B3B       0.112000
     33 H11          8.2040     1.1310     0.0530 ha         1 B3B       0.112000
     34 H12          6.4280     2.8220     0.4990 ha         1 B3B       0.112000
     35 H13          4.0450     2.1900     0.3910 ha         1 B3B       0.121000
@<TRIPOS>BOND
     1     1     2 2   
     2     2     3 1   
     3     2    23 1   
     4     3     4 ar  
     5     3     8 ar  
     6     4     5 ar  
     7     4     9 1   
     8     5     6 ar  
     9     5    24 1   
    10     6     7 ar  
    11     6    25 1   
    12     7     8 ar  
    13     7    26 1   
    14     8    27 1   
    15     9    10 2   
    16     9    28 1   
    17    10    11 1   
    18    11    12 1   
    19    11    29 1   
    20    12    13 2   
    21    12    16 1   
    22    13    14 1   
    23    14    15 2   
    24    14    17 1   
    25    15    16 1   
    26    15    30 1   
    27    17    18 ar  
    28    17    22 ar  
    29    18    19 ar  
    30    18    31 1   
    31    19    20 ar  
    32    19    32 1   
    33    20    21 ar  
    34    20    33 1   
    35    21    22 ar  
    36    21    34 1   
    37    22    35 1   
@<TRIPOS>SUBSTRUCTURE
     1 B3B         1 TEMP              0 ****  ****    0 ROOT
