@<TRIPOS>MOLECULE
B3B
   35    37     1     0     0
SMALL
abcg2


@<TRIPOS>ATOM
      1 O8          -3.2490    -2.6140     0.6240 o          1 B3B      -0.518100
      2 C7          -3.2150    -1.4230     0.8280 c          1 B3B       0.593500
      3 C5          -4.2020    -0.4750     0.2620 ca         1 B3B      -0.161600
      4 C6          -3.9190     0.8900     0.0710 ca         1 B3B      -0.085900
      5 C1          -4.9540     1.7470    -0.3070 ca         1 B3B      -0.108000
      6 C2          -6.2310     1.2630    -0.5360 ca         1 B3B      -0.089000
      7 C3          -6.4960    -0.0930    -0.3950 ca         1 B3B      -0.110000
      8 C4          -5.4850    -0.9520     0.0020 ca         1 B3B      -0.066000
      9 C9          -2.5810     1.4580     0.1750 ce         1 B3B       0.368800
     10 N10         -1.5500     0.7180     0.0560 n2         1 B3B      -0.395400
     11 N11         -0.3400     1.2570     0.1500 nu         1 B3B      -0.611200
     12 C12          0.7410     0.4520    -0.0070 cc         1 B3B       0.695300
     13 N13          1.9630     0.8610     0.0570 nd         1 B3B      -0.717000
     14 C14          2.8370    -0.1810    -0.1410 cd         1 B3B       0.381500
     15 C15          2.2480    -1.3890    -0.3540 cc         1 B3B      -0.290000
     16 S16          0.5290    -1.2420    -0.3130 ss         1 B3B       0.007600
     17 C17          4.2820     0.0800    -0.1020 ca         1 B3B      -0.120500
     18 C18          5.2060    -0.9030    -0.4640 ca         1 B3B      -0.085500
     19 C19          6.5670    -0.6500    -0.4120 ca         1 B3B      -0.118000
     20 C20          7.0340     0.5930    -0.0010 ca         1 B3B      -0.103000
     21 C21          6.1240     1.5790     0.3560 ca         1 B3B      -0.118000
     22 C22          4.7600     1.3260     0.3050 ca         1 B3B      -0.085500
     23 H1          -2.4760    -0.9920     1.5170 h4         1 B3B       0.007200
     24 H2          -4.7470     2.8010    -0.4450 ha         1 B3B       0.115000
     25 H3          -7.0180     1.9440    -0.8330 ha         1 B3B       0.118000
     26 H4          -7.4910    -0.4760    -0.5820 ha         1 B3B       0.121000
     27 H5          -5.6990    -2.0020     0.1490 ha         1 B3B       0.133000
     28 H6          -2.5040     2.5370     0.3110 h4         1 B3B      -0.004200
     29 H7          -0.1990     2.2480     0.3190 hn         1 B3B       0.507000
     30 H8           2.7090    -2.3490    -0.5220 h4         1 B3B       0.162000
     31 H9           4.8660    -1.8750    -0.8010 ha         1 B3B       0.121000
     32 H10          7.2660    -1.4250    -0.6990 ha         1 B3B       0.112000
     33 H11          8.0970     0.7910     0.0380 ha         1 B3B       0.112000
     34 H12          6.4750     2.5500     0.6780 ha         1 B3B       0.112000
     35 H13          4.0610     2.1020     0.5860 ha         1 B3B       0.121000
@<TRIPOS>BOND
     1     1     2 2   
     2     2     3 1   
     3     2    23 1   
     4     3     4 ar  
     5     3     8 ar  
     6     4     5 ar  
     7     4     9 1   
     8     5     6 ar  
     9     5    24 1   
    10     6     7 ar  
    11     6    25 1   
    12     7     8 ar  
    13     7    26 1   
    14     8    27 1   
    15     9    10 2   
    16     9    28 1   
    17    10    11 1   
    18    11    12 1   
    19    11    29 1   
    20    12    13 2   
    21    12    16 1   
    22    13    14 1   
    23    14    15 2   
    24    14    17 1   
    25    15    16 1   
    26    15    30 1   
    27    17    18 ar  
    28    17    22 ar  
    29    18    19 ar  
    30    18    31 1   
    31    19    20 ar  
    32    19    32 1   
    33    20    21 ar  
    34    20    33 1   
    35    21    22 ar  
    36    21    34 1   
    37    22    35 1   
@<TRIPOS>SUBSTRUCTURE
     1 B3B         1 TEMP              0 ****  ****    0 ROOT
