@<TRIPOS>MOLECULE
B3D
   17    16     1     0     0
SMALL
No Charge or Current Charge


@<TRIPOS>ATOM
      1 OE1          3.1400     0.4440    -0.6440 o          1 B3D      -0.869550
      2 CD           2.4740     0.0870     0.3190 c          1 B3D       0.929100
      3 OE2          2.7040     0.4690     1.4600 o          1 B3D      -0.869550
      4 CG           1.2770    -0.8520     0.0870 c3         1 B3D      -0.213400
      5 CB          -0.0130    -0.0230    -0.1230 c3         1 B3D       0.183500
      6 N            0.0200     0.6040    -1.4520 n8         1 B3D      -0.863800
      7 CA          -1.2970    -0.8730     0.0380 c3         1 B3D      -0.213400
      8 C           -2.5270     0.0370     0.2120 c          1 B3D       0.929100
      9 O           -2.7810     0.4630     1.3330 o          1 B3D      -0.869550
     10 OXT         -3.2310     0.2860    -0.7600 o          1 B3D      -0.869550
     11 HG3          1.4190    -1.4660    -0.8120 hc         1 B3D       0.005700
     12 HG2          1.1100    -1.4490     0.9930 hc         1 B3D       0.005700
     13 HB          -0.0260     0.7720     0.6400 h1         1 B3D       0.077700
     14 H            0.9780     0.9180    -1.6370 hn         1 B3D       0.314300
     15 H2          -0.1480    -0.1190    -2.1550 hn         1 B3D       0.314300
     16 HA1         -1.3890    -1.5090    -0.8530 hc         1 B3D       0.005700
     17 HA2         -1.1510    -1.4450     0.9630 hc         1 B3D       0.005700
@<TRIPOS>BOND
     1     1     2 1   
     2     2     3 1   
     3     2     4 1   
     4     4     5 1   
     5     4    11 1   
     6     4    12 1   
     7     5     6 1   
     8     5     7 1   
     9     5    13 1   
    10     6    14 1   
    11     6    15 1   
    12     7     8 1   
    13     7    16 1   
    14     7    17 1   
    15     8     9 1   
    16     8    10 1   
@<TRIPOS>SUBSTRUCTURE
     1 B3D         1 TEMP              0 ****  ****    0 ROOT
