@<TRIPOS>MOLECULE
B3D
   17    16     1     0     0
SMALL
bcc


@<TRIPOS>ATOM
      1 OE1          3.6130    -0.7540    -0.1330 o          1 B3D      -0.869550
      2 CD           2.5820    -0.0910     0.1060 c          1 B3D       0.929100
      3 OE2          2.5490     1.1090     0.4520 o          1 B3D      -0.869550
      4 CG           1.2470    -0.8480    -0.0140 c3         1 B3D      -0.213400
      5 CB          -0.0200     0.0030     0.0200 c3         1 B3D       0.183500
      6 N           -0.0980     0.9850    -1.0600 n8         1 B3D      -0.863800
      7 CA          -1.2660    -0.8750    -0.0190 c3         1 B3D      -0.213400
      8 C           -2.5720    -0.0870     0.1430 c          1 B3D       0.929100
      9 O           -2.6560     0.6580     1.1420 o          1 B3D      -0.869550
     10 OXT         -3.4630    -0.2630    -0.7150 o          1 B3D      -0.869550
     11 HG3          1.2600    -1.4440    -0.9350 hc         1 B3D       0.005700
     12 HG2          1.2160    -1.5830     0.8010 hc         1 B3D       0.005700
     13 HB          -0.0350     0.5610     0.9600 h1         1 B3D       0.077700
     14 H            0.7480     1.5400    -1.0300 hn         1 B3D       0.314300
     15 H2          -0.0710     0.4930    -1.9470 hn         1 B3D       0.314300
     16 HA1         -1.2760    -1.4470    -0.9540 hc         1 B3D       0.005700
     17 HA2         -1.2000    -1.6120     0.7910 hc         1 B3D       0.005700
@<TRIPOS>BOND
     1     1     2 1   
     2     2     3 1   
     3     2     4 1   
     4     4     5 1   
     5     4    11 1   
     6     4    12 1   
     7     5     6 1   
     8     5     7 1   
     9     5    13 1   
    10     6    14 1   
    11     6    15 1   
    12     7     8 1   
    13     7    16 1   
    14     7    17 1   
    15     8     9 1   
    16     8    10 1   
@<TRIPOS>SUBSTRUCTURE
     1 B3D         1 TEMP              0 ****  ****    0 ROOT
