@<TRIPOS>MOLECULE
B3E
   20    19     1     0     0
SMALL
bcc


@<TRIPOS>ATOM
      1 N            1.0910    -1.9730    -0.1630 n8         1 B3E      -0.898800
      2 CB           0.8940    -3.3260     0.3630 c3         1 B3E       0.165500
      3 CG          -0.4770    -3.8460    -0.0620 c3         1 B3E      -0.049400
      4 CD          -1.6440    -3.0870     0.5510 c3         1 B3E      -0.198400
      5 CE          -3.0490    -3.6210     0.2120 c          1 B3E       0.926600
      6 OF2         -3.1350    -4.5820    -0.5780 o          1 B3E      -0.866300
      7 OF1         -4.0030    -3.0330     0.7630 o          1 B3E      -0.866300
      8 CA           2.0120    -4.2180    -0.1610 c3         1 B3E      -0.193400
      9 C            2.0870    -5.6290     0.4490 c          1 B3E       0.929600
     10 O            1.6950    -5.7710     1.6260 o          1 B3E      -0.859800
     11 OXT          2.5780    -6.5230    -0.2730 o          1 B3E      -0.859800
     12 H            1.9890    -1.6220     0.1480 hn         1 B3E       0.303800
     13 H2           0.4090    -1.3460     0.2470 hn         1 B3E       0.303800
     14 HB           0.9360    -3.3490     1.4620 h1         1 B3E       0.024700
     15 HG2         -0.5390    -3.8160    -1.1540 hc         1 B3E       0.055200
     16 HG3         -0.5520    -4.8980     0.2220 hc         1 B3E       0.055200
     17 HD2         -1.6170    -2.0320     0.2560 hc         1 B3E       0.003700
     18 HD3         -1.5390    -3.0780     1.6430 hc         1 B3E       0.003700
     19 HA1          1.9450    -4.2870    -1.2510 hc         1 B3E       0.010200
     20 HA2          2.9760    -3.7330     0.0470 hc         1 B3E       0.010200
@<TRIPOS>BOND
     1     1     2 1   
     2     1    12 1   
     3     1    13 1   
     4     2     3 1   
     5     2     8 1   
     6     2    14 1   
     7     3     4 1   
     8     3    15 1   
     9     3    16 1   
    10     4     5 1   
    11     4    17 1   
    12     4    18 1   
    13     5     6 1   
    14     5     7 1   
    15     8     9 1   
    16     8    19 1   
    17     8    20 1   
    18     9    10 1   
    19     9    11 1   
@<TRIPOS>SUBSTRUCTURE
     1 B3E         1 TEMP              0 ****  ****    0 ROOT
