@<TRIPOS>MOLECULE
B3E
   20    19     1     0     0
SMALL
No Charge or Current Charge


@<TRIPOS>ATOM
      1 N            1.1350    -1.9720    -0.1970 n8         1 B3E      -0.898800
      2 CB           0.9170    -3.3230     0.3520 c3         1 B3E       0.165500
      3 CG          -0.4780    -3.8650    -0.0730 c3         1 B3E      -0.049400
      4 CD          -1.6800    -3.0000     0.4010 c3         1 B3E      -0.198400
      5 CE          -3.0080    -3.6940     0.0320 c          1 B3E       0.926600
      6 OF2         -3.5070    -3.4630    -1.0620 o          1 B3E      -0.866300
      7 OF1         -3.4930    -4.4900     0.8260 o          1 B3E      -0.866300
      8 CA           2.1060    -4.2260    -0.0550 c3         1 B3E      -0.193400
      9 C            2.0510    -5.5650     0.7010 c          1 B3E       0.929600
     10 O            2.5470    -5.6260     1.8190 o          1 B3E      -0.859800
     11 OXT          1.5110    -6.5250     0.1650 o          1 B3E      -0.859800
     12 H            1.9480    -1.5550     0.2620 hn         1 B3E       0.303800
     13 H2           0.3460    -1.3810     0.0760 hn         1 B3E       0.303800
     14 HB           0.9210    -3.2260     1.4470 h1         1 B3E       0.024700
     15 HG2         -0.5120    -3.9680    -1.1650 hc         1 B3E       0.055200
     16 HG3         -0.6080    -4.8730     0.3390 hc         1 B3E       0.055200
     17 HD2         -1.5970    -2.0390    -0.1210 hc         1 B3E       0.003700
     18 HD3         -1.5790    -2.9200     1.4910 hc         1 B3E       0.003700
     19 HA1          2.0300    -4.3850    -1.1380 hc         1 B3E       0.010200
     20 HA2          3.0080    -3.6760     0.2450 hc         1 B3E       0.010200
@<TRIPOS>BOND
     1     1     2 1   
     2     1    12 1   
     3     1    13 1   
     4     2     3 1   
     5     2     8 1   
     6     2    14 1   
     7     3     4 1   
     8     3    15 1   
     9     3    16 1   
    10     4     5 1   
    11     4    17 1   
    12     4    18 1   
    13     5     6 1   
    14     5     7 1   
    15     8     9 1   
    16     8    19 1   
    17     8    20 1   
    18     9    10 1   
    19     9    11 1   
@<TRIPOS>SUBSTRUCTURE
     1 B3E         1 TEMP              0 ****  ****    0 ROOT
