@<TRIPOS>MOLECULE
B3F
   50    51     1     0     0
SMALL
abcg2


@<TRIPOS>ATOM
      1 C1         -30.3510    20.6660    14.2050 c3         1 B3F      -0.090100
      2 C2         -30.7520    19.3910    14.9420 c3         1 B3F      -0.078400
      3 C3         -29.8520    19.1010    16.1440 c3         1 B3F      -0.074400
      4 C4         -30.1420    17.7780    16.8550 c3         1 B3F      -0.080400
      5 C5         -31.5170    17.7300    17.4900 c3         1 B3F       0.165600
      6 C7         -32.7640    16.2280    18.8930 ca         1 B3F       0.178100
      7 C8         -33.8810    17.0640    18.9110 ca         1 B3F      -0.228000
      8 C9         -35.0010    16.6610    19.6370 ca         1 B3F      -0.045000
      9 C15        -35.4610    13.6190    24.3210 ca         1 B3F      -0.094000
     10 O6         -31.6110    16.5030    18.2270 os         1 B3F      -0.360100
     11 C10        -35.0330    15.4650    20.3340 ca         1 B3F      -0.190000
     12 C11        -33.9020    14.6340    20.3240 ca         1 B3F       0.342000
     13 N12        -33.8890    13.3900    20.9580 nu         1 B3F      -0.995000
     14 C13        -34.4860    13.0590    22.1760 ca         1 B3F       0.277000
     15 C14        -34.9060    14.0100    23.1100 ca         1 B3F      -0.144000
     16 C16        -35.6060    12.2690    24.6260 ca         1 B3F      -0.124000
     17 C17        -35.1970    11.3120    23.7060 ca         1 B3F      -0.081000
     18 C18        -34.6440    11.6930    22.4880 ca         1 B3F      -0.079000
     19 N19        -34.2520    10.7400    21.5220 ns         1 B3F      -0.165000
     20 C20        -33.5720     9.5810    21.7490 c          1 B3F       0.596100
     21 O21        -33.2000     9.2300    22.8640 o          1 B3F      -0.585100
     22 C22        -33.3240     8.7380    20.5130 c3         1 B3F      -0.155400
     23 C23        -31.9160     8.1460    20.4860 c3         1 B3F      -0.080100
     24 C24        -32.7760    15.0250    19.6020 ca         1 B3F      -0.213000
     25 H1         -31.0050    20.8560    13.3510 hc         1 B3F       0.033367
     26 H2         -30.4070    21.5340    14.8680 hc         1 B3F       0.033367
     27 H3         -29.3250    20.5970    13.8350 hc         1 B3F       0.033367
     28 H4         -31.7930    19.4750    15.2670 hc         1 B3F       0.037700
     29 H5         -30.7120    18.5400    14.2530 hc         1 B3F       0.037700
     30 H6         -28.8110    19.0900    15.8080 hc         1 B3F       0.042700
     31 H7         -29.9330    19.9250    16.8630 hc         1 B3F       0.042700
     32 H8         -30.0470    16.9480    16.1470 hc         1 B3F       0.055200
     33 H9         -29.3980    17.6170    17.6400 hc         1 B3F       0.055200
     34 H10        -31.6570    18.5760    18.1710 h1         1 B3F       0.037200
     35 H11        -32.3100    17.7590    16.7390 h1         1 B3F       0.037200
     36 H12        -33.8910    18.0010    18.3760 ha         1 B3F       0.119000
     37 H13        -35.8770    17.2990    19.6450 ha         1 B3F       0.112000
     38 H15        -35.9260    15.1660    20.8620 ha         1 B3F       0.126000
     39 H16        -33.1310    12.7840    20.6790 hn         1 B3F       0.485000
     40 H17        -34.7730    15.0600    22.8950 ha         1 B3F       0.125000
     41 H18        -36.0400    11.9610    25.5680 ha         1 B3F       0.119000
     42 H19        -35.3120    10.2600    23.9210 ha         1 B3F       0.133000
     43 H20        -34.4380    10.9780    20.5580 hn         1 B3F       0.154000
     44 H21        -33.5140     9.3220    19.6110 hc         1 B3F       0.057200
     45 H22        -34.0660     7.9330    20.5310 hc         1 B3F       0.057200
     46 H23        -31.7920     7.5060    19.6120 hc         1 B3F       0.045033
     47 H24        -31.1620     8.9340    20.4410 hc         1 B3F       0.045033
     48 H25        -31.7310     7.5480    21.3790 hc         1 B3F       0.045033
     49 H26        -31.8930    14.3970    19.5860 ha         1 B3F       0.125000
     50 H14        -35.7700    14.3750    25.0310 ha         1 B3F       0.115000
@<TRIPOS>BOND
     1     1     2 1   
     2     1    25 1   
     3     1    26 1   
     4     1    27 1   
     5     2     3 1   
     6     2    28 1   
     7     2    29 1   
     8     3     4 1   
     9     3    30 1   
    10     3    31 1   
    11     4     5 1   
    12     4    32 1   
    13     4    33 1   
    14     5    10 1   
    15     5    34 1   
    16     5    35 1   
    17     6     7 ar  
    18     6    10 1   
    19     6    24 ar  
    20     7     8 ar  
    21     7    36 1   
    22     8    11 ar  
    23     8    37 1   
    24     9    15 ar  
    25     9    16 ar  
    26     9    50 1   
    27    11    12 ar  
    28    11    38 1   
    29    12    13 1   
    30    12    24 ar  
    31    13    14 1   
    32    13    39 1   
    33    14    15 ar  
    34    14    18 ar  
    35    15    40 1   
    36    16    17 ar  
    37    16    41 1   
    38    17    18 ar  
    39    17    42 1   
    40    18    19 1   
    41    19    20 1   
    42    19    43 1   
    43    20    21 2   
    44    20    22 1   
    45    22    23 1   
    46    22    44 1   
    47    22    45 1   
    48    23    46 1   
    49    23    47 1   
    50    23    48 1   
    51    24    49 1   
@<TRIPOS>SUBSTRUCTURE
     1 B3F         1 TEMP              0 ****  ****    0 ROOT
