@<TRIPOS>MOLECULE
B3F
   50    51     1     0     0
SMALL
No Charge or Current Charge


@<TRIPOS>ATOM
      1 C1         -30.3720    20.4610    13.9080 c3         1 B3F      -0.090100
      2 C2         -30.7150    19.2300    14.7690 c3         1 B3F      -0.078400
      3 C3         -29.8280    19.1110    16.0310 c3         1 B3F      -0.074400
      4 C4         -30.0960    17.8460    16.8810 c3         1 B3F      -0.080400
      5 C5         -31.5020    17.7950    17.5140 c3         1 B3F       0.165600
      6 C7         -32.6980    16.2810    19.0490 ca         1 B3F       0.178100
      7 C8         -33.8720    17.0630    19.0230 ca         1 B3F      -0.228000
      8 C9         -34.9960    16.6640    19.7640 ca         1 B3F      -0.045000
      9 C15        -35.6450    13.4710    24.4890 ca         1 B3F      -0.094000
     10 O6         -31.5660    16.6180    18.3370 os         1 B3F      -0.360100
     11 C10        -34.9450    15.4910    20.5350 ca         1 B3F      -0.190000
     12 C11        -33.7730    14.7190    20.5740 ca         1 B3F       0.342000
     13 N12        -33.7010    13.5420    21.3190 nu         1 B3F      -0.995000
     14 C13        -34.4300    13.0510    22.4120 ca         1 B3F       0.277000
     15 C14        -34.9420    13.9450    23.3710 ca         1 B3F      -0.144000
     16 C16        -35.8380    12.0920    24.6560 ca         1 B3F      -0.124000
     17 C17        -35.3230    11.1880    23.7130 ca         1 B3F      -0.081000
     18 C18        -34.6050    11.6550    22.5870 ca         1 B3F      -0.079000
     19 N19        -34.1020    10.7590    21.5960 ns         1 B3F      -0.165000
     20 C20        -33.8170     9.4000    21.6350 c          1 B3F       0.596100
     21 O21        -33.9150     8.7060    22.6410 o          1 B3F      -0.585100
     22 C22        -33.3730     8.8080    20.2900 c3         1 B3F      -0.155400
     23 C23        -31.8600     8.5000    20.2700 c3         1 B3F      -0.080100
     24 C24        -32.6590    15.1110    19.8210 ca         1 B3F      -0.213000
     25 H1         -31.0240    20.5050    13.0280 hc         1 B3F       0.033367
     26 H2         -30.5080    21.3860    14.4820 hc         1 B3F       0.033367
     27 H3         -29.3320    20.4170    13.5630 hc         1 B3F       0.033367
     28 H4         -31.7700    19.2900    15.0600 hc         1 B3F       0.037700
     29 H5         -30.6010    18.3250    14.1580 hc         1 B3F       0.037700
     30 H6         -28.7750    19.1040    15.7240 hc         1 B3F       0.042700
     31 H7         -29.9660    20.0020    16.6580 hc         1 B3F       0.042700
     32 H8         -29.9480    16.9540    16.2600 hc         1 B3F       0.055200
     33 H9         -29.3490    17.8020    17.6830 hc         1 B3F       0.055200
     34 H10        -31.6640    18.6980    18.1180 h1         1 B3F       0.037200
     35 H11        -32.2650    17.7550    16.7260 h1         1 B3F       0.037200
     36 H12        -33.9330    17.9730    18.4340 ha         1 B3F       0.119000
     37 H13        -35.9070    17.2590    19.7380 ha         1 B3F       0.112000
     38 H15        -35.8260    15.1780    21.0870 ha         1 B3F       0.126000
     39 H16        -32.9350    12.9350    21.0330 hn         1 B3F       0.485000
     40 H17        -34.7790    15.0130    23.2620 ha         1 B3F       0.125000
     41 H18        -36.3890    11.7220    25.5180 ha         1 B3F       0.119000
     42 H19        -35.5070    10.1280    23.8610 ha         1 B3F       0.133000
     43 H20        -33.9550    11.1880    20.6920 hn         1 B3F       0.154000
     44 H21        -33.5910     9.5120    19.4770 hc         1 B3F       0.057200
     45 H22        -33.9160     7.8710    20.1210 hc         1 B3F       0.057200
     46 H23        -31.5670     8.0770    19.3010 hc         1 B3F       0.045033
     47 H24        -31.2740     9.4120    20.4360 hc         1 B3F       0.045033
     48 H25        -31.5990     7.7750    21.0510 hc         1 B3F       0.045033
     49 H26        -31.7530    14.5150    19.8380 ha         1 B3F       0.125000
     50 H14        -36.0370    14.1700    25.2250 ha         1 B3F       0.115000
@<TRIPOS>BOND
     1     1     2 1   
     2     1    25 1   
     3     1    26 1   
     4     1    27 1   
     5     2     3 1   
     6     2    28 1   
     7     2    29 1   
     8     3     4 1   
     9     3    30 1   
    10     3    31 1   
    11     4     5 1   
    12     4    32 1   
    13     4    33 1   
    14     5    10 1   
    15     5    34 1   
    16     5    35 1   
    17     6     7 ar  
    18     6    10 1   
    19     6    24 ar  
    20     7     8 ar  
    21     7    36 1   
    22     8    11 ar  
    23     8    37 1   
    24     9    15 ar  
    25     9    16 ar  
    26     9    50 1   
    27    11    12 ar  
    28    11    38 1   
    29    12    13 1   
    30    12    24 ar  
    31    13    14 1   
    32    13    39 1   
    33    14    15 ar  
    34    14    18 ar  
    35    15    40 1   
    36    16    17 ar  
    37    16    41 1   
    38    17    18 ar  
    39    17    42 1   
    40    18    19 1   
    41    19    20 1   
    42    19    43 1   
    43    20    21 2   
    44    20    22 1   
    45    22    23 1   
    46    22    44 1   
    47    22    45 1   
    48    23    46 1   
    49    23    47 1   
    50    23    48 1   
    51    24    49 1   
@<TRIPOS>SUBSTRUCTURE
     1 B3F         1 TEMP              0 ****  ****    0 ROOT
