@<TRIPOS>MOLECULE
B3G
   66    67     1     0     0
SMALL
bcc


@<TRIPOS>ATOM
      1 C12          2.3330     2.7730    -0.2730 c          1 B3G       0.710500
      2 C14          3.8230     4.5940    -0.1810 c5         1 B3G       0.102000
      3 C15          4.0830     3.8340    -1.4820 c5         1 B3G      -0.092400
      4 O01         -1.5140     0.4240     1.3030 o          1 B3G      -0.593000
      5 N03         -0.5390    -0.9120    -0.2690 ns         1 B3G      -0.539900
      6 C04          0.7490    -1.0530     0.3510 c3         1 B3G       0.044700
      7 N06          3.0280    -0.4160    -0.0610 ns         1 B3G      -0.562900
      8 C07          4.2140     0.0200    -0.7620 c3         1 B3G       0.098700
      9 C08          5.3840    -0.9190    -0.4250 c3         1 B3G       0.000900
     10 O09          5.0560    -2.2410    -0.7160 oh         1 B3G      -0.567800
     11 C10          4.5120     1.5040    -0.5640 c3         1 B3G      -0.082400
     12 C11          3.4870     2.4470    -1.2220 c5         1 B3G      -0.148700
     13 N13          2.6070     3.9670     0.2840 ns         1 B3G      -0.590900
     14 O16          1.3480     2.0940    -0.0350 o          1 B3G      -0.631500
     15 O17          1.6470    -0.6400    -1.8460 o          1 B3G      -0.640100
     16 C18          1.0040    -2.4930     0.8250 c3         1 B3G      -0.088400
     17 C20          0.2790    -4.4900     2.1290 c3         1 B3G      -0.091600
     18 C21          0.1790    -2.2280     3.2050 c3         1 B3G      -0.091600
     19 O22         -2.5410    -0.0680    -0.6390 os         1 B3G      -0.449900
     20 C23         -3.6810     0.6910    -0.2460 c3         1 B3G       0.166400
     21 C24         -4.6950     0.6040    -1.3760 c3         1 B3G      -0.044100
     22 C25         -5.9240     1.3960    -1.0240 ca         1 B3G      -0.066300
     23 C26         -6.9770     0.7880    -0.3460 ca         1 B3G      -0.117000
     24 C27         -8.0880     1.5360     0.0110 ca         1 B3G       0.029400
     25 CL1         -9.3960     0.7590     0.8460 cl         1 B3G      -0.123400
     26 C29         -8.1800     2.8860    -0.2860 ca         1 B3G      -0.126000
     27 C30         -7.1270     3.4880    -0.9610 ca         1 B3G      -0.121000
     28 C31         -6.0100     2.7520    -1.3270 ca         1 B3G      -0.120000
     29 S            5.9770    -0.8060     1.3110 s6         1 B3G       1.174800
     30 H1           4.6380     4.4700     0.5380 h1         1 B3G       0.041200
     31 H2           3.6790     5.6630    -0.3400 h1         1 B3G       0.041200
     32 H3           3.5470     4.3200    -2.3000 hc         1 B3G       0.050200
     33 H4           5.1390     3.8050    -1.7470 hc         1 B3G       0.050200
     34 H5          -0.9830    -2.8780     1.5290 hc         1 B3G       0.041700
     35 H6          -0.6380    -1.2630    -1.2090 hn         1 B3G       0.333500
     36 H7           0.7880    -0.3700     1.2000 h1         1 B3G       0.107700
     37 H8           3.0830    -0.3890     0.9480 hn         1 B3G       0.356500
     38 H9           4.0260    -0.1390    -1.8270 h1         1 B3G       0.063700
     39 H10          6.2450    -0.6470    -1.0420 h2         1 B3G       0.087700
     40 H11          4.2050    -2.4380    -0.3070 ho         1 B3G       0.401000
     41 H12          4.6230     1.7390     0.4970 hc         1 B3G       0.069700
     42 H13          5.4870     1.7040    -1.0160 hc         1 B3G       0.069700
     43 H14          3.1040     1.9930    -2.1380 hc         1 B3G       0.089700
     44 H15          2.0380     4.3550     1.0210 hn         1 B3G       0.319500
     45 H16          2.0260    -2.5600     1.2130 hc         1 B3G       0.057700
     46 H17          0.9640    -3.1550    -0.0470 hc         1 B3G       0.057700
     47 H18         -0.4050    -4.8850     2.8820 hc         1 B3G       0.033533
     48 H19          0.1350    -5.0660     1.2130 hc         1 B3G       0.033533
     49 H20          1.2970    -4.6740     2.4800 hc         1 B3G       0.033533
     50 H21         -0.0870    -1.1780     3.0950 hc         1 B3G       0.033533
     51 H22         -0.4730    -2.6480     3.9720 hc         1 B3G       0.033533
     52 H23          1.2040    -2.2800     3.5830 hc         1 B3G       0.033533
     53 H24         -4.1080     0.2910     0.6770 h1         1 B3G       0.049700
     54 H25         -3.4030     1.7320    -0.0650 h1         1 B3G       0.049700
     55 H26         -4.2520     0.9900    -2.2970 hc         1 B3G       0.062700
     56 H27         -4.9590    -0.4410    -1.5530 hc         1 B3G       0.062700
     57 H28         -6.9310    -0.2670    -0.1040 ha         1 B3G       0.149000
     58 H29         -9.0530     3.4570     0.0000 ha         1 B3G       0.143000
     59 H30         -7.1860     4.5410    -1.2040 ha         1 B3G       0.133000
     60 H31         -5.1980     3.2360    -1.8550 ha         1 B3G       0.139000
     61 O1           4.7600    -0.9260     2.1520 o          1 B3G      -0.682867
     62 O3           6.8970    -1.9440     1.4770 o          1 B3G      -0.682867
     63 O2           6.6450     0.5030     1.4350 o          1 B3G      -0.682867
     64 C05          1.8400    -0.6520    -0.6410 c          1 B3G       0.674100
     65 C02         -1.5190    -0.1340     0.2250 c          1 B3G       0.764100
     66 C19          0.0410    -3.0010     1.8970 c3         1 B3G      -0.053700
@<TRIPOS>BOND
     1     1    12 1   
     2     1    13 1   
     3     1    14 2   
     4     2     3 1   
     5     2    13 1   
     6     2    30 1   
     7     2    31 1   
     8     3    12 1   
     9     3    32 1   
    10     3    33 1   
    11     4    65 2   
    12     5     6 1   
    13     5    35 1   
    14     5    65 1   
    15     6    16 1   
    16     6    36 1   
    17     6    64 1   
    18     7     8 1   
    19     7    37 1   
    20     7    64 1   
    21     8     9 1   
    22     8    11 1   
    23     8    38 1   
    24     9    10 1   
    25     9    29 1   
    26     9    39 1   
    27    10    40 1   
    28    11    12 1   
    29    11    41 1   
    30    11    42 1   
    31    12    43 1   
    32    13    44 1   
    33    15    64 2   
    34    16    45 1   
    35    16    46 1   
    36    16    66 1   
    37    17    47 1   
    38    17    48 1   
    39    17    49 1   
    40    17    66 1   
    41    18    50 1   
    42    18    51 1   
    43    18    52 1   
    44    18    66 1   
    45    19    20 1   
    46    19    65 1   
    47    20    21 1   
    48    20    53 1   
    49    20    54 1   
    50    21    22 1   
    51    21    55 1   
    52    21    56 1   
    53    22    23 ar  
    54    22    28 ar  
    55    23    24 ar  
    56    23    57 1   
    57    24    25 1   
    58    24    26 ar  
    59    26    27 ar  
    60    26    58 1   
    61    27    28 ar  
    62    27    59 1   
    63    28    60 1   
    64    29    61 1   
    65    29    62 1   
    66    29    63 1   
    67    34    66 1   
@<TRIPOS>SUBSTRUCTURE
     1 B3G         1 TEMP              0 ****  ****    0 ROOT
