@<TRIPOS>MOLECULE
B3G
   66    67     1     0     0
SMALL
No Charge or Current Charge


@<TRIPOS>ATOM
      1 C12          2.9470     2.9270     0.0280 c          1 B3G       0.568000
      2 C14          4.7540     4.4750     0.1710 c5         1 B3G       0.102000
      3 C15          4.6870     3.9390    -1.2850 c5         1 B3G      -0.092400
      4 O01         -1.7370     0.4970     1.3730 o          1 B3G      -0.544000
      5 N03         -0.6050    -0.5110    -0.3560 ns         1 B3G      -0.472900
      6 C04          0.7170    -0.7070     0.2820 c3         1 B3G       0.044700
      7 N06          3.1130    -0.2860    -0.1850 ns         1 B3G      -0.495900
      8 C07          4.3530    -0.0250    -0.9240 c3         1 B3G       0.098700
      9 C08          5.4000    -1.1650    -0.6960 c3         1 B3G      -0.086700
     10 O09          4.8620    -2.4190    -1.2310 oh         1 B3G      -0.630000
     11 C10          4.8920     1.4120    -0.6820 c3         1 B3G      -0.082400
     12 C11          3.9450     2.5860    -1.0910 c5         1 B3G      -0.148700
     13 N13          3.4690     4.0090     0.6850 ns         1 B3G      -0.523900
     14 O16          1.8100     2.5270     0.2130 o          1 B3G      -0.556000
     15 O17          1.6500    -0.2390    -1.9380 o          1 B3G      -0.640100
     16 C18          0.8580    -2.1510     0.8480 c3         1 B3G      -0.088400
     17 C20          0.0000    -4.0240     2.3560 c3         1 B3G      -0.091600
     18 C21          0.2390    -1.6800     3.3090 c3         1 B3G      -0.091600
     19 O22         -2.7160     0.0830    -0.6650 os         1 B3G      -0.473100
     20 C23         -3.9650     0.6520    -0.2400 c3         1 B3G       0.189600
     21 C24         -4.9510     0.5520    -1.4170 c3         1 B3G      -0.044100
     22 C25         -6.3170     1.1280    -1.0680 ca         1 B3G      -0.066300
     23 C26         -7.3220     0.3000    -0.5280 ca         1 B3G      -0.099000
     24 C27         -8.5790     0.8360    -0.2010 ca         1 B3G       0.121000
     25 Cl1         -9.8260    -0.2050     0.4730 cl         1 B3G      -0.215000
     26 C29         -8.8420     2.1990    -0.4100 ca         1 B3G      -0.108000
     27 C30         -7.8440     3.0300    -0.9470 ca         1 B3G      -0.103000
     28 C31         -6.5850     2.4960    -1.2740 ca         1 B3G      -0.102000
     29 S            6.0080    -1.3310     1.0750 s6         1 B3G       1.285600
     30 H1           5.5910     4.0310     0.7270 h1         1 B3G       0.041200
     31 H2           4.8560     5.5680     0.2030 h1         1 B3G       0.041200
     32 H3           4.0980     4.6150    -1.9160 hc         1 B3G       0.050200
     33 H4           5.6750     3.8410    -1.7500 hc         1 B3G       0.050200
     34 H5          -1.1060    -2.3000     1.7470 hc         1 B3G       0.041700
     35 H6          -0.7180    -0.7730    -1.3270 hn         1 B3G       0.333500
     36 H7           0.8340     0.0200     1.0950 h1         1 B3G       0.107700
     37 H8           3.1950    -0.4660     0.8110 hn         1 B3G       0.356500
     38 H9           4.1140    -0.0670    -1.9950 h1         1 B3G       0.063700
     39 H10          6.3110    -0.9220    -1.2510 h2         1 B3G       0.087700
     40 H11          4.2420    -2.7830    -0.5610 ho         1 B3G       0.440000
     41 H12          5.1650     1.5320     0.3730 hc         1 B3G       0.069700
     42 H13          5.8290     1.5000    -1.2460 hc         1 B3G       0.069700
     43 H14          3.3950     2.2680    -1.9840 hc         1 B3G       0.089700
     44 H15          2.9200     4.4530     1.4120 hn         1 B3G       0.319500
     45 H16          1.8950    -2.3160     1.1670 hc         1 B3G       0.057700
     46 H17          0.6800    -2.8570     0.0270 hc         1 B3G       0.057700
     47 H18         -0.6900    -4.2840     3.1680 hc         1 B3G       0.033533
     48 H19         -0.2780    -4.6180     1.4770 hc         1 B3G       0.033533
     49 H20          1.0130    -4.3130     2.6600 hc         1 B3G       0.033533
     50 H21          0.0980    -0.6090     3.1310 hc         1 B3G       0.033533
     51 H22         -0.4270    -1.9680     4.1310 hc         1 B3G       0.033533
     52 H23          1.2740    -1.8400     3.6370 hc         1 B3G       0.033533
     53 H24         -4.3690     0.1060     0.6230 h1         1 B3G       0.049700
     54 H25         -3.8390     1.7060     0.0430 h1         1 B3G       0.049700
     55 H26         -4.5290     1.0780    -2.2820 hc         1 B3G       0.062700
     56 H27         -5.0480    -0.5000    -1.7130 hc         1 B3G       0.062700
     57 H28         -7.1300    -0.7560    -0.3600 ha         1 B3G       0.131000
     58 H29         -9.8160     2.6100    -0.1550 ha         1 B3G       0.125000
     59 H30         -8.0450     4.0870    -1.1080 ha         1 B3G       0.115000
     60 H31         -5.8180     3.1470    -1.6880 ha         1 B3G       0.121000
     61 O1           4.7730    -1.3610     1.8740 o          1 B3G      -0.682867
     62 O3           6.7580    -2.5970     1.0830 o          1 B3G      -0.682867
     63 O2           6.8470    -0.1440     1.2960 o          1 B3G      -0.682867
     64 C05          1.8520    -0.3880    -0.7370 c          1 B3G       0.607100
     65 C02         -1.6930     0.0660     0.2320 c          1 B3G       0.648100
     66 C19         -0.0710    -2.5120     2.0410 c3         1 B3G      -0.053700
@<TRIPOS>BOND
     1     1    12 1   
     2     1    13 1   
     3     1    14 2   
     4     2     3 1   
     5     2    13 1   
     6     2    30 1   
     7     2    31 1   
     8     3    12 1   
     9     3    32 1   
    10     3    33 1   
    11     4    65 2   
    12     5     6 1   
    13     5    35 1   
    14     5    65 1   
    15     6    16 1   
    16     6    36 1   
    17     6    64 1   
    18     7     8 1   
    19     7    37 1   
    20     7    64 1   
    21     8     9 1   
    22     8    11 1   
    23     8    38 1   
    24     9    10 1   
    25     9    29 1   
    26     9    39 1   
    27    10    40 1   
    28    11    12 1   
    29    11    41 1   
    30    11    42 1   
    31    12    43 1   
    32    13    44 1   
    33    15    64 2   
    34    16    45 1   
    35    16    46 1   
    36    16    66 1   
    37    17    47 1   
    38    17    48 1   
    39    17    49 1   
    40    17    66 1   
    41    18    50 1   
    42    18    51 1   
    43    18    52 1   
    44    18    66 1   
    45    19    20 1   
    46    19    65 1   
    47    20    21 1   
    48    20    53 1   
    49    20    54 1   
    50    21    22 1   
    51    21    55 1   
    52    21    56 1   
    53    22    23 ar  
    54    22    28 ar  
    55    23    24 ar  
    56    23    57 1   
    57    24    25 1   
    58    24    26 ar  
    59    26    27 ar  
    60    26    58 1   
    61    27    28 ar  
    62    27    59 1   
    63    28    60 1   
    64    29    61 1   
    65    29    62 1   
    66    29    63 1   
    67    34    66 1   
@<TRIPOS>SUBSTRUCTURE
     1 B3G         1 TEMP              0 ****  ****    0 ROOT
