@<TRIPOS>MOLECULE
B3H
   51    50     1     0     0
SMALL
No Charge or Current Charge


@<TRIPOS>ATOM
      1 O11         -0.1130     3.6840    -1.3280 o          1 B3H      -0.499000
      2 C11         -0.0530     2.9290    -0.3660 c          1 B3H       0.591100
      3 C12          1.2480     2.5800     0.3600 c3         1 B3H      -0.136400
      4 C13          1.9800     1.4070    -0.3350 c3         1 B3H      -0.069400
      5 C14          3.2930     1.0100     0.3740 c3         1 B3H      -0.075400
      6 C15          4.0230    -0.1620    -0.3190 c3         1 B3H      -0.074400
      7 C16          5.3360    -0.5600     0.3900 c3         1 B3H      -0.074400
      8 C17          6.0650    -1.7320    -0.3030 c3         1 B3H      -0.076400
      9 C18          7.3780    -2.1300     0.4050 c3         1 B3H      -0.074400
     10 C19          8.1060    -3.3000    -0.2850 c3         1 B3H      -0.088100
     11 O21         -5.2970    -0.4160     0.7910 o          1 B3H      -0.497000
     12 C21         -4.1450    -0.6680     0.4650 c          1 B3H       0.594100
     13 C22         -3.6050    -2.0900     0.2990 c3         1 B3H      -0.139400
     14 C23         -3.9080    -2.6460    -1.1120 c3         1 B3H      -0.068400
     15 C24         -3.3710    -4.0750    -1.3250 c3         1 B3H      -0.092100
     16 C41         -2.4270     2.5080    -0.4070 c3         1 B3H       0.170600
     17 O41         -1.1290     2.2890     0.1850 os         1 B3H      -0.414100
     18 C42         -3.5070     1.6780     0.3400 c3         1 B3H       0.175300
     19 O42         -3.1900     0.2720     0.1740 os         1 B3H      -0.428100
     20 C43         -3.6660     2.0430     1.8550 c3         1 B3H       0.144600
     21 O43         -2.6520     1.4510     2.6910 oh         1 B3H      -0.635000
     22 H121         1.0120     2.2620     1.3820 hc         1 B3H       0.073700
     23 H122         1.9030     3.4590     0.3680 hc         1 B3H       0.073700
     24 H131         2.2000     1.6840    -1.3740 hc         1 B3H       0.053200
     25 H132         1.3120     0.5370    -0.3710 hc         1 B3H       0.053200
     26 H141         3.0730     0.7330     1.4120 hc         1 B3H       0.037700
     27 H142         3.9610     1.8800     0.4090 hc         1 B3H       0.037700
     28 H151         4.2440     0.1150    -1.3580 hc         1 B3H       0.039200
     29 H152         3.3550    -1.0310    -0.3550 hc         1 B3H       0.039200
     30 H161         5.1150    -0.8370     1.4280 hc         1 B3H       0.036700
     31 H162         6.0040     0.3100     0.4250 hc         1 B3H       0.036700
     32 H171         6.2860    -1.4550    -1.3420 hc         1 B3H       0.037700
     33 H172         5.3970    -2.6010    -0.3390 hc         1 B3H       0.037700
     34 H181         7.1610    -2.4100     1.4440 hc         1 B3H       0.036700
     35 H182         8.0500    -1.2640     0.4410 hc         1 B3H       0.036700
     36 H191         8.3690    -3.0380    -1.3170 hc         1 B3H       0.031367
     37 H192         9.0300    -3.5460     0.2520 hc         1 B3H       0.031367
     38 H193         7.4720    -4.1940    -0.3050 hc         1 B3H       0.031367
     39 H221        -2.5160    -2.0760     0.4220 hc         1 B3H       0.073700
     40 H222        -4.0700    -2.7410     1.0490 hc         1 B3H       0.073700
     41 H231        -4.9930    -2.6440    -1.2790 hc         1 B3H       0.052700
     42 H232        -3.4680    -1.9820    -1.8670 hc         1 B3H       0.052700
     43 H241        -2.2820    -4.1030    -1.2010 hc         1 B3H       0.035033
     44 H242        -3.8200    -4.7700    -0.6060 hc         1 B3H       0.035033
     45 H243        -3.6100    -4.4260    -2.3370 hc         1 B3H       0.035033
     46 H411        -2.6970     3.5700    -0.3580 h1         1 B3H       0.055700
     47 H412        -2.4230     2.2110    -1.4640 h1         1 B3H       0.055700
     48 H42         -4.4610     1.9050    -0.1550 h1         1 B3H       0.072700
     49 H431        -3.6470     3.1360     1.9550 h1         1 B3H       0.030200
     50 H432        -4.6580     1.7150     2.1930 h1         1 B3H       0.030200
     51 HO43        -2.8220     1.7530     3.6100 ho         1 B3H       0.440000
@<TRIPOS>BOND
     1     1     2 2   
     2     2     3 1   
     3     2    17 1   
     4     3     4 1   
     5     3    22 1   
     6     3    23 1   
     7     4     5 1   
     8     4    24 1   
     9     4    25 1   
    10     5     6 1   
    11     5    26 1   
    12     5    27 1   
    13     6     7 1   
    14     6    28 1   
    15     6    29 1   
    16     7     8 1   
    17     7    30 1   
    18     7    31 1   
    19     8     9 1   
    20     8    32 1   
    21     8    33 1   
    22     9    10 1   
    23     9    34 1   
    24     9    35 1   
    25    10    36 1   
    26    10    37 1   
    27    10    38 1   
    28    11    12 2   
    29    12    13 1   
    30    12    19 1   
    31    13    14 1   
    32    13    39 1   
    33    13    40 1   
    34    14    15 1   
    35    14    41 1   
    36    14    42 1   
    37    15    43 1   
    38    15    44 1   
    39    15    45 1   
    40    16    17 1   
    41    16    18 1   
    42    16    46 1   
    43    16    47 1   
    44    18    19 1   
    45    18    20 1   
    46    18    48 1   
    47    20    21 1   
    48    20    49 1   
    49    20    50 1   
    50    21    51 1   
@<TRIPOS>SUBSTRUCTURE
     1 B3H         1 TEMP              0 ****  ****    0 ROOT
