@<TRIPOS>MOLECULE
B3H
   51    50     1     0     0
SMALL
abcg2


@<TRIPOS>ATOM
      1 O11          0.3550     2.4660    -1.4970 o          1 B3H      -0.499000
      2 C11          0.1290     1.7960    -0.5190 c          1 B3H       0.591100
      3 C12          1.1710     1.0940     0.3080 c3         1 B3H      -0.136400
      4 C13          2.5080     0.9530    -0.4030 c3         1 B3H      -0.069400
      5 C14          3.5250     0.1790     0.4240 c3         1 B3H      -0.075400
      6 C15          4.8460    -0.0160    -0.3100 c3         1 B3H      -0.074400
      7 C16          5.8690    -0.8190     0.4820 c3         1 B3H      -0.074400
      8 C17          7.1700    -1.0400    -0.2790 c3         1 B3H      -0.076400
      9 C18          8.1960    -1.8570     0.4960 c3         1 B3H      -0.074400
     10 C19          9.4830    -2.0820    -0.2870 c3         1 B3H      -0.088100
     11 O21         -5.7340     0.2870    -0.3350 o          1 B3H      -0.497000
     12 C21         -4.6830    -0.2700    -0.1430 c          1 B3H       0.594100
     13 C22         -4.5050    -1.7550     0.0150 c3         1 B3H      -0.139400
     14 C23         -5.7670    -2.5600    -0.2510 c3         1 B3H      -0.068400
     15 C24         -5.5300    -4.0500    -0.0500 c3         1 B3H      -0.092100
     16 C41         -2.1800     2.1830    -0.7520 c3         1 B3H       0.170600
     17 O41         -1.0940     1.5980    -0.0410 os         1 B3H      -0.414100
     18 C42         -3.4910     1.7960    -0.1040 c3         1 B3H       0.175300
     19 O42         -3.5190     0.3670    -0.0310 os         1 B3H      -0.428100
     20 C43         -3.7680     2.4200     1.2510 c3         1 B3H       0.144600
     21 O43         -2.8290     1.9890     2.2010 oh         1 B3H      -0.635000
     22 H121         0.7870     0.1150     0.6070 hc         1 B3H       0.073700
     23 H122         1.2920     1.6590     1.2400 hc         1 B3H       0.073700
     24 H131         2.9100     1.9410    -0.6450 hc         1 B3H       0.053200
     25 H132         2.3590     0.4410    -1.3580 hc         1 B3H       0.053200
     26 H141         3.1100    -0.7990     0.6910 hc         1 B3H       0.037700
     27 H142         3.7060     0.6990     1.3720 hc         1 B3H       0.037700
     28 H151         5.2690     0.9610    -0.5670 hc         1 B3H       0.039200
     29 H152         4.6520    -0.5200    -1.2640 hc         1 B3H       0.039200
     30 H161         5.4380    -1.7890     0.7540 hc         1 B3H       0.036700
     31 H162         6.0830    -0.3080     1.4280 hc         1 B3H       0.036700
     32 H171         7.6060    -0.0710    -0.5460 hc         1 B3H       0.037700
     33 H172         6.9510    -1.5430    -1.2280 hc         1 B3H       0.037700
     34 H181         7.7580    -2.8230     0.7680 hc         1 B3H       0.036700
     35 H182         8.4240    -1.3520     1.4400 hc         1 B3H       0.036700
     36 H191         9.9570    -1.1330    -0.5450 hc         1 B3H       0.031367
     37 H192        10.2050    -2.6680     0.2830 hc         1 B3H       0.031367
     38 H193         9.2870    -2.6150    -1.2190 hc         1 B3H       0.031367
     39 H221        -3.6930    -2.0830    -0.6410 hc         1 B3H       0.073700
     40 H222        -4.1450    -1.9390     1.0340 hc         1 B3H       0.073700
     41 H231        -6.5680    -2.2240     0.4110 hc         1 B3H       0.052700
     42 H232        -6.1120    -2.3770    -1.2710 hc         1 B3H       0.052700
     43 H241        -4.7440    -4.4190    -0.7110 hc         1 B3H       0.035033
     44 H242        -5.2250    -4.2660     0.9760 hc         1 B3H       0.035033
     45 H243        -6.4330    -4.6250    -0.2560 hc         1 B3H       0.035033
     46 H411        -2.1000     3.2730    -0.7620 h1         1 B3H       0.055700
     47 H412        -2.1730     1.8420    -1.7900 h1         1 B3H       0.055700
     48 H42         -4.2720     2.1600    -0.7790 h1         1 B3H       0.072700
     49 H431        -3.7490     3.5090     1.1090 h1         1 B3H       0.030200
     50 H432        -4.7930     2.1630     1.5470 h1         1 B3H       0.030200
     51 HO43        -3.0970     2.3400     3.0550 ho         1 B3H       0.440000
@<TRIPOS>BOND
     1     1     2 2   
     2     2     3 1   
     3     2    17 1   
     4     3     4 1   
     5     3    22 1   
     6     3    23 1   
     7     4     5 1   
     8     4    24 1   
     9     4    25 1   
    10     5     6 1   
    11     5    26 1   
    12     5    27 1   
    13     6     7 1   
    14     6    28 1   
    15     6    29 1   
    16     7     8 1   
    17     7    30 1   
    18     7    31 1   
    19     8     9 1   
    20     8    32 1   
    21     8    33 1   
    22     9    10 1   
    23     9    34 1   
    24     9    35 1   
    25    10    36 1   
    26    10    37 1   
    27    10    38 1   
    28    11    12 2   
    29    12    13 1   
    30    12    19 1   
    31    13    14 1   
    32    13    39 1   
    33    13    40 1   
    34    14    15 1   
    35    14    41 1   
    36    14    42 1   
    37    15    43 1   
    38    15    44 1   
    39    15    45 1   
    40    16    17 1   
    41    16    18 1   
    42    16    46 1   
    43    16    47 1   
    44    18    19 1   
    45    18    20 1   
    46    18    48 1   
    47    20    21 1   
    48    20    49 1   
    49    20    50 1   
    50    21    51 1   
@<TRIPOS>SUBSTRUCTURE
     1 B3H         1 TEMP              0 ****  ****    0 ROOT
