@<TRIPOS>MOLECULE
B3I
   14    14     1     0     0
SMALL
No Charge or Current Charge


@<TRIPOS>ATOM
      1 C2           0.6430    -0.0900     0.7320 ca         1 B3I       0.254000
      2 C3          -0.6700    -0.0800     0.2040 ca         1 B3I       0.212000
      3 C5           0.2220     0.1000    -2.0500 ca         1 B3I       0.197000
      4 C6           1.5270     0.0900    -1.5370 ca         1 B3I      -0.052000
      5 O1           3.5290     0.9910     0.9820 o          1 B3I      -0.688000
      6 O2           3.8520    -0.9550     0.1040 o          1 B3I      -0.688000
      7 C1           1.7440     0.0010    -0.1450 ca         1 B3I      -0.103600
      8 C4          -0.8760     0.0170    -1.1830 ca         1 B3I      -0.097000
      9 I1           0.9570    -0.2900     2.8950 i          1 B3I      -0.297000
     10 I2          -2.4320    -0.2210     1.4920 i          1 B3I      -0.350000
     11 I3          -0.1020     0.2430    -4.1890 i          1 B3I      -0.366000
     12 H6           2.3720     0.1560    -2.2190 ha         1 B3I       0.143000
     13 H4          -1.8850     0.0240    -1.5830 ha         1 B3I       0.119000
     14 C            3.1410    -0.0000     0.3810 c          1 B3I       0.717600
@<TRIPOS>BOND
     1     1     2 ar  
     2     1     7 ar  
     3     1     9 1   
     4     2     8 ar  
     5     2    10 1   
     6     3     4 ar  
     7     3     8 ar  
     8     3    11 1   
     9     4     7 ar  
    10     4    12 1   
    11     5    14 1   
    12     6    14 1   
    13     7    14 1   
    14     8    13 1   
@<TRIPOS>SUBSTRUCTURE
     1 B3I         1 TEMP              0 ****  ****    0 ROOT
