@<TRIPOS>MOLECULE
B3I
   14    14     1     0     0
SMALL
bcc


@<TRIPOS>ATOM
      1 C2           0.6190    -0.0710     0.7360 ca         1 B3I       0.116900
      2 C3          -0.6720    -0.0640     0.2060 ca         1 B3I       0.074900
      3 C5           0.2230     0.0780    -2.0020 ca         1 B3I       0.059900
      4 C6           1.5080     0.0340    -1.4930 ca         1 B3I      -0.070000
      5 O1           3.4640     0.8950     1.1790 o          1 B3I      -0.793300
      6 O2           3.9300    -0.8010    -0.2020 o          1 B3I      -0.793300
      7 C1           1.7210    -0.0150    -0.1170 ca         1 B3I      -0.103600
      8 C4          -0.8790     0.0280    -1.1650 ca         1 B3I      -0.115000
      9 I1           0.9250    -0.2510     2.8100 i          1 B3I      -0.159900
     10 I2          -2.4110    -0.1800     1.3850 i          1 B3I      -0.212900
     11 I3          -0.0720     0.2040    -4.0790 i          1 B3I      -0.228900
     12 H6           2.3650     0.0510    -2.1530 ha         1 B3I       0.161000
     13 H4          -1.8820     0.0530    -1.5670 ha         1 B3I       0.137000
     14 C            3.1830     0.0240     0.3460 c          1 B3I       0.928200
@<TRIPOS>BOND
     1     1     2 ar  
     2     1     7 ar  
     3     1     9 1   
     4     2     8 ar  
     5     2    10 1   
     6     3     4 ar  
     7     3     8 ar  
     8     3    11 1   
     9     4     7 ar  
    10     4    12 1   
    11     5    14 1   
    12     6    14 1   
    13     7    14 1   
    14     8    13 1   
@<TRIPOS>SUBSTRUCTURE
     1 B3I         1 TEMP              0 ****  ****    0 ROOT
