@<TRIPOS>MOLECULE
B3J
   93    95     1     0     0
SMALL
abcg2


@<TRIPOS>ATOM
      1 C11         -3.5280    -0.3140     0.5610 c3         1 B3J       0.097700
      2 C12         -2.8570    -1.4100     1.3840 c3         1 B3J      -0.085400
      3 C13         -1.5450    -1.8840     0.7790 c5         1 B3J      -0.142700
      4 C14         -0.8660    -2.9290     1.6520 c          1 B3J       0.560000
      5 C24          3.2270     1.5980     2.6150 c3         1 B3J      -0.055100
      6 C25          3.5780     3.0130     2.2450 ca         1 B3J      -0.069300
      7 C16         -0.5680    -3.6400    -0.5700 c5         1 B3J       0.098000
      8 C02          0.8340     1.5100     0.7100 c          1 B3J       0.645100
      9 C04         -1.1290     2.5030    -0.3660 c3         1 B3J       0.045700
     10 C05         -1.3020     3.6020    -1.4070 c3         1 B3J      -0.083400
     11 C06         -0.3830     4.8100    -1.2040 c3         1 B3J      -0.063700
     12 C07         -0.5470     5.7800    -2.3700 c3         1 B3J      -0.088600
     13 C08         -0.6410     5.5190     0.1210 c3         1 B3J      -0.088600
     14 C17         -1.6680    -2.5740    -0.5810 c5         1 B3J      -0.098400
     15 C19         -4.8900     0.1350     1.1170 c3         1 B3J      -0.085700
     16 C26          4.9060     3.3970     2.0620 ca         1 B3J      -0.104500
     17 C27          5.2320     4.6950     1.6910 ca         1 B3J      -0.113000
     18 C28          4.2310     5.6380     1.5010 ca         1 B3J      -0.114000
     19 C29          2.9060     5.2750     1.6980 ca         1 B3J      -0.113000
     20 C30          2.5850     3.9760     2.0690 ca         1 B3J      -0.104500
     21 N03          0.2270     2.0030    -0.3880 ns         1 B3J      -0.497900
     22 N10         -2.6700     0.8560     0.5050 ns         1 B3J      -0.491900
     23 N15         -0.3930    -3.8910     0.8440 ns         1 B3J      -0.519900
     24 O01          0.2800     1.3570     1.7820 o          1 B3J      -0.557000
     25 O18         -0.7600    -2.8930     2.8670 o          1 B3J      -0.566000
     26 O20         -5.3960     1.2190     0.3940 oh         1 B3J      -0.601000
     27 O21         -2.3060     0.9060    -1.7350 o          1 B3J      -0.601100
     28 O22          2.1090     1.2330     0.4450 os         1 B3J      -0.471100
     29 S           -6.1790    -1.1600     0.9980 s6         1 B3J       1.320600
     30 H1          -3.6790    -0.6530    -0.4650 h1         1 B3J       0.106700
     31 H2          -2.6830    -1.0410     2.3990 hc         1 B3J       0.082700
     32 H3          -3.5360    -2.2570     1.4740 hc         1 B3J       0.082700
     33 H4          -0.8460    -1.0400     0.7160 hc         1 B3J       0.063700
     34 H5           4.0340     1.1610     3.2070 hc         1 B3J       0.068200
     35 H6           2.3380     1.5820     3.2450 hc         1 B3J       0.068200
     36 H7          -0.8620    -4.5480    -1.0970 h1         1 B3J       0.034200
     37 H8           0.3600    -3.2770    -1.0220 h1         1 B3J       0.034200
     38 H9          -1.3240     2.9150     0.6250 h1         1 B3J       0.073700
     39 H10         -1.1370     3.1830    -2.4040 hc         1 B3J       0.065200
     40 H11         -2.3440     3.9370    -1.3830 hc         1 B3J       0.065200
     41 H12          0.6550     4.4620    -1.2040 hc         1 B3J       0.045700
     42 H13          0.1340     6.6270    -2.2760 hc         1 B3J       0.032367
     43 H14         -0.3440     5.2930    -3.3250 hc         1 B3J       0.032367
     44 H15         -1.5650     6.1770    -2.4110 hc         1 B3J       0.032367
     45 H16         -1.6680     5.8880     0.1750 hc         1 B3J       0.032367
     46 H17         -0.4780     4.8660     0.9810 hc         1 B3J       0.032367
     47 H18          0.0270     6.3740     0.2380 hc         1 B3J       0.032367
     48 H19         -2.6470    -3.0540    -0.6600 hc         1 B3J       0.076700
     49 H20         -1.5680    -1.8870    -1.4190 hc         1 B3J       0.076700
     50 H21         -4.7910     0.3640     2.1890 h2         1 B3J       0.044700
     51 H24          5.6980     2.6740     2.2180 ha         1 B3J       0.116000
     52 H25          6.2700     4.9690     1.5530 ha         1 B3J       0.109000
     53 H26          4.4830     6.6500     1.2120 ha         1 B3J       0.107000
     54 H27          2.1180     6.0060     1.5700 ha         1 B3J       0.109000
     55 H28          1.5480     3.7150     2.2410 ha         1 B3J       0.116000
     56 H29          0.7470     2.0550    -1.2510 hn         1 B3J       0.332500
     57 H30         -2.3250     1.2050     1.3880 hn         1 B3J       0.314500
     58 H31          0.1710    -4.6480     1.1980 hn         1 B3J       0.312500
     59 H32         -4.7490     1.9310     0.4450 ho         1 B3J       0.407000
     60 O2          -6.0920    -1.6780    -0.3800 o          1 B3J      -0.679200
     61 O3          -5.8350    -2.1600     2.0270 o          1 B3J      -0.679200
     62 O1          -7.4410    -0.4580     1.2830 o          1 B3J      -0.679200
     63 C1           4.2980     0.4610     0.6190 c6         1 B3J      -0.102900
     64 C2           4.1390    -0.5320    -0.5220 c6         1 B3J       0.108500
     65 N1           3.6080    -1.8000    -0.0510 n          1 B3J      -0.403800
     66 C4           2.3930    -1.7130     0.7410 c6         1 B3J       0.108500
     67 C5           2.5380    -0.7140     1.8780 c6         1 B3J      -0.102900
     68 C23          3.0100     0.6610     1.4140 c6         1 B3J       0.229000
     69 H34          5.0690     0.1000     1.3040 hc         1 B3J       0.067950
     70 H35          4.6500     1.4090     0.2080 hc         1 B3J       0.067950
     71 H36          3.4870    -0.1190    -1.2990 h1         1 B3J       0.059950
     72 H37          5.1110    -0.6990    -0.9790 h1         1 B3J       0.059950
     73 H40          1.5480    -1.4420     0.0960 h1         1 B3J       0.059950
     74 H41          2.1620    -2.6840     1.1670 h1         1 B3J       0.059950
     75 H42          1.5950    -0.6550     2.4220 hc         1 B3J       0.067950
     76 H43          3.2810    -1.0920     2.5860 hc         1 B3J       0.067950
     77 O5           3.3220    -3.9990    -0.2540 os         1 B3J      -0.471100
     78 C8           3.6300    -5.3540    -0.6730 c3         1 B3J       0.224000
     79 C9           5.0130    -5.7780    -0.1940 c3         1 B3J      -0.108767
     80 C10          2.5690    -6.1830     0.0410 c3         1 B3J      -0.108767
     81 C15          3.4740    -5.5110    -2.1800 c3         1 B3J      -0.108767
     82 O4           4.9750    -2.9940    -1.4130 o          1 B3J      -0.562000
     83 H22          5.1240    -5.6060     0.8780 hc         1 B3J       0.048589
     84 H23          5.1360    -6.8470    -0.3690 hc         1 B3J       0.048589
     85 H38          5.8150    -5.2610    -0.7160 hc         1 B3J       0.048589
     86 H39          1.5660    -5.9190    -0.2980 hc         1 B3J       0.048589
     87 H44          2.7180    -7.2410    -0.1720 hc         1 B3J       0.048589
     88 H45          2.6210    -6.0490     1.1230 hc         1 B3J       0.048589
     89 H46          4.2330    -4.9660    -2.7350 hc         1 B3J       0.048589
     90 H47          3.5600    -6.5660    -2.4420 hc         1 B3J       0.048589
     91 H48          2.4890    -5.1710    -2.5070 hc         1 B3J       0.048589
     92 C09         -2.0990     1.3420    -0.6150 c          1 B3J       0.577100
     93 C3           4.0390    -2.9460    -0.6380 c          1 B3J       0.654100
@<TRIPOS>BOND
     1     1     2 1   
     2     1    15 1   
     3     1    22 1   
     4     1    30 1   
     5     2     3 1   
     6     2    31 1   
     7     2    32 1   
     8     3     4 1   
     9     3    14 1   
    10     3    33 1   
    11     4    23 1   
    12     4    25 2   
    13     5     6 1   
    14     5    34 1   
    15     5    35 1   
    16     5    68 1   
    17     6    16 ar  
    18     6    20 ar  
    19     7    14 1   
    20     7    23 1   
    21     7    36 1   
    22     7    37 1   
    23     8    21 1   
    24     8    24 2   
    25     8    28 1   
    26     9    10 1   
    27     9    21 1   
    28     9    38 1   
    29     9    92 1   
    30    10    11 1   
    31    10    39 1   
    32    10    40 1   
    33    11    12 1   
    34    11    13 1   
    35    11    41 1   
    36    12    42 1   
    37    12    43 1   
    38    12    44 1   
    39    13    45 1   
    40    13    46 1   
    41    13    47 1   
    42    14    48 1   
    43    14    49 1   
    44    15    26 1   
    45    15    29 1   
    46    15    50 1   
    47    16    17 ar  
    48    16    51 1   
    49    17    18 ar  
    50    17    52 1   
    51    18    19 ar  
    52    18    53 1   
    53    19    20 ar  
    54    19    54 1   
    55    20    55 1   
    56    21    56 1   
    57    22    57 1   
    58    22    92 1   
    59    23    58 1   
    60    26    59 1   
    61    27    92 2   
    62    28    68 1   
    63    29    60 1   
    64    29    61 1   
    65    29    62 1   
    66    63    64 1   
    67    63    68 1   
    68    63    69 1   
    69    63    70 1   
    70    64    65 1   
    71    64    71 1   
    72    64    72 1   
    73    65    66 1   
    74    65    93 1   
    75    66    67 1   
    76    66    73 1   
    77    66    74 1   
    78    67    68 1   
    79    67    75 1   
    80    67    76 1   
    81    77    78 1   
    82    77    93 1   
    83    78    79 1   
    84    78    80 1   
    85    78    81 1   
    86    79    83 1   
    87    79    84 1   
    88    79    85 1   
    89    80    86 1   
    90    80    87 1   
    91    80    88 1   
    92    81    89 1   
    93    81    90 1   
    94    81    91 1   
    95    82    93 2   
@<TRIPOS>SUBSTRUCTURE
     1 B3J         1 TEMP              0 ****  ****    0 ROOT
