@<TRIPOS>MOLECULE
B3J
   93    95     1     0     0
SMALL
No Charge or Current Charge


@<TRIPOS>ATOM
      1 C11         -3.8700    -0.5130    -0.1850 c3         1 B3J       0.097700
      2 C12         -3.7830    -1.6650     0.8550 c3         1 B3J      -0.085400
      3 C13         -2.3980    -2.3660     0.9740 c5         1 B3J      -0.142700
      4 C14         -2.3300    -3.4310     2.0780 c          1 B3J       0.560000
      5 C24          4.2990     2.3410     2.0350 c3         1 B3J      -0.055100
      6 C25          4.3050     3.6720     1.2810 ca         1 B3J      -0.069300
      7 C16         -0.8640    -4.0940     0.3230 c5         1 B3J       0.098000
      8 C02          1.4820     1.5940     1.0520 c          1 B3J       0.645100
      9 C04         -0.8940     1.9490     0.2820 c3         1 B3J       0.045700
     10 C05         -1.3440     3.3240    -0.2860 c3         1 B3J      -0.083400
     11 C06         -0.5970     4.5670     0.2770 c3         1 B3J      -0.063700
     12 C07         -1.0140     5.8510    -0.4750 c3         1 B3J      -0.088600
     13 C08         -0.7880     4.7410     1.8020 c3         1 B3J      -0.088600
     14 C17         -1.9500    -3.1640    -0.2830 c5         1 B3J      -0.098400
     15 C19         -5.3340     0.0220    -0.3430 c3         1 B3J      -0.085700
     16 C26          5.4530     4.0950     0.5810 ca         1 B3J      -0.104500
     17 C27          5.4570     5.3230    -0.1030 ca         1 B3J      -0.113000
     18 C28          4.3170     6.1430    -0.0840 ca         1 B3J      -0.114000
     19 C29          3.1760     5.7380     0.6260 ca         1 B3J      -0.113000
     20 C30          3.1720     4.5100     1.3100 ca         1 B3J      -0.104500
     21 N03          0.5510     1.7330     0.0660 ns         1 B3J      -0.497900
     22 N10         -2.9390     0.5620     0.1980 ns         1 B3J      -0.491900
     23 N15         -1.4570    -4.3840     1.6250 ns         1 B3J      -0.519900
     24 O01          1.2450     1.6220     2.2480 o          1 B3J      -0.557000
     25 O18         -3.0450    -3.5920     3.0540 o          1 B3J      -0.566000
     26 O20         -5.3680     1.4840    -0.4590 oh         1 B3J      -0.601000
     27 O21         -1.2720     0.1120    -1.2930 o          1 B3J      -0.601100
     28 O22          2.6840     1.3460     0.4620 os         1 B3J      -0.471100
     29 S           -6.2260    -0.8260    -1.7580 s6         1 B3J       1.320600
     30 H1          -3.5490    -0.9120    -1.1580 h1         1 B3J       0.106700
     31 H2          -4.0650    -1.2580     1.8350 hc         1 B3J       0.082700
     32 H3          -4.5410    -2.4210     0.6230 hc         1 B3J       0.082700
     33 H4          -1.6210    -1.6280     1.2030 hc         1 B3J       0.063700
     34 H5           5.2910     2.1800     2.4730 hc         1 B3J       0.068200
     35 H6           3.6370     2.4260     2.9040 hc         1 B3J       0.068200
     36 H7          -0.7070    -4.9960    -0.2840 h1         1 B3J       0.034200
     37 H8           0.0970    -3.5720     0.4300 h1         1 B3J       0.034200
     38 H9          -1.1060     1.9200     1.3580 h1         1 B3J       0.073700
     39 H10         -1.2150     3.3010    -1.3760 hc         1 B3J       0.065200
     40 H11         -2.4200     3.4460    -0.1080 hc         1 B3J       0.065200
     41 H12          0.4750     4.4300     0.0910 hc         1 B3J       0.045700
     42 H13         -0.4460     6.7160    -0.1110 hc         1 B3J       0.032367
     43 H14         -0.8210     5.7510    -1.5500 hc         1 B3J       0.032367
     44 H15         -2.0820     6.0570    -0.3340 hc         1 B3J       0.032367
     45 H16         -1.8500     4.8540     2.0520 hc         1 B3J       0.032367
     46 H17         -0.3940     3.8810     2.3540 hc         1 B3J       0.032367
     47 H18         -0.2570     5.6320     2.1580 hc         1 B3J       0.032367
     48 H19         -2.7760    -3.7540    -0.6980 hc         1 B3J       0.076700
     49 H20         -1.5580    -2.5350    -1.0890 hc         1 B3J       0.076700
     50 H21         -5.9070    -0.2540     0.5480 h2         1 B3J       0.044700
     51 H24          6.3450     3.4720     0.5660 ha         1 B3J       0.116000
     52 H25          6.3450     5.6390    -0.6460 ha         1 B3J       0.109000
     53 H26          4.3210     7.0940    -0.6130 ha         1 B3J       0.107000
     54 H27          2.2940     6.3750     0.6500 ha         1 B3J       0.109000
     55 H28          2.2870     4.2120     1.8650 ha         1 B3J       0.116000
     56 H29          0.8950     1.6220    -0.8790 hn         1 B3J       0.332500
     57 H30         -3.2400     1.2050     0.9200 hn         1 B3J       0.314500
     58 H31         -1.3320    -5.2330     2.1640 hn         1 B3J       0.312500
     59 H32         -5.0910     1.7080    -1.3740 ho         1 B3J       0.407000
     60 O2          -5.5340    -0.3230    -2.9550 o          1 B3J      -0.679200
     61 O3          -6.0400    -2.2630    -1.5110 o          1 B3J      -0.679200
     62 O1          -7.6200    -0.3710    -1.6340 o          1 B3J      -0.679200
     63 C1           5.0000     0.7390     0.1510 c6         1 B3J      -0.102900
     64 C2           4.6480    -0.5100    -0.6920 c6         1 B3J       0.108500
     65 N1           4.1980    -1.7060     0.0810 n          1 B3J      -0.403800
     66 C4           3.3800    -1.4430     1.3050 c6         1 B3J       0.108500
     67 C5           3.7810    -0.1790     2.0960 c6         1 B3J      -0.102900
     68 C23          3.9070     1.0740     1.1910 c6         1 B3J       0.229000
     69 H34          5.9600     0.5730     0.6580 hc         1 B3J       0.067950
     70 H35          5.1520     1.5870    -0.5290 hc         1 B3J       0.067950
     71 H36          3.8480    -0.2440    -1.3980 h1         1 B3J       0.059950
     72 H37          5.5270    -0.7760    -1.2970 h1         1 B3J       0.059950
     73 H40          2.3270    -1.3570     1.0010 h1         1 B3J       0.059950
     74 H41          3.4470    -2.3000     1.9900 h1         1 B3J       0.059950
     75 H42          3.0680    -0.0150     2.9120 hc         1 B3J       0.067950
     76 H43          4.7450    -0.3670     2.5880 hc         1 B3J       0.067950
     77 O5           3.5140    -3.9050     0.1980 os         1 B3J      -0.471100
     78 C8           3.3330    -5.2730    -0.2340 c3         1 B3J       0.224000
     79 C9           4.7150    -5.9500    -0.4260 c3         1 B3J      -0.108767
     80 C10          2.5820    -5.9430     0.9380 c3         1 B3J      -0.108767
     81 C15          2.4570    -5.3030    -1.5140 c3         1 B3J      -0.108767
     82 O4           4.6430    -3.1490    -1.6710 o          1 B3J      -0.562000
     83 H22          5.3670    -5.7530     0.4330 hc         1 B3J       0.048589
     84 H23          4.5980    -7.0370    -0.5190 hc         1 B3J       0.048589
     85 H38          5.2210    -5.6020    -1.3320 hc         1 B3J       0.048589
     86 H39          1.6270    -5.4410     1.1300 hc         1 B3J       0.048589
     87 H44          2.3730    -6.9970     0.7170 hc         1 B3J       0.048589
     88 H45          3.1780    -5.9020     1.8570 hc         1 B3J       0.048589
     89 H46          3.0160    -4.9830    -2.3990 hc         1 B3J       0.048589
     90 H47          2.0980    -6.3210    -1.7080 hc         1 B3J       0.048589
     91 H48          1.5840    -4.6500    -1.4040 hc         1 B3J       0.048589
     92 C09         -1.7010     0.7890    -0.3660 c          1 B3J       0.577100
     93 C3           4.1560    -2.9580    -0.5660 c          1 B3J       0.654100
@<TRIPOS>BOND
     1     1     2 1   
     2     1    15 1   
     3     1    22 1   
     4     1    30 1   
     5     2     3 1   
     6     2    31 1   
     7     2    32 1   
     8     3     4 1   
     9     3    14 1   
    10     3    33 1   
    11     4    23 1   
    12     4    25 2   
    13     5     6 1   
    14     5    34 1   
    15     5    35 1   
    16     5    68 1   
    17     6    16 ar  
    18     6    20 ar  
    19     7    14 1   
    20     7    23 1   
    21     7    36 1   
    22     7    37 1   
    23     8    21 1   
    24     8    24 2   
    25     8    28 1   
    26     9    10 1   
    27     9    21 1   
    28     9    38 1   
    29     9    92 1   
    30    10    11 1   
    31    10    39 1   
    32    10    40 1   
    33    11    12 1   
    34    11    13 1   
    35    11    41 1   
    36    12    42 1   
    37    12    43 1   
    38    12    44 1   
    39    13    45 1   
    40    13    46 1   
    41    13    47 1   
    42    14    48 1   
    43    14    49 1   
    44    15    26 1   
    45    15    29 1   
    46    15    50 1   
    47    16    17 ar  
    48    16    51 1   
    49    17    18 ar  
    50    17    52 1   
    51    18    19 ar  
    52    18    53 1   
    53    19    20 ar  
    54    19    54 1   
    55    20    55 1   
    56    21    56 1   
    57    22    57 1   
    58    22    92 1   
    59    23    58 1   
    60    26    59 1   
    61    27    92 2   
    62    28    68 1   
    63    29    60 1   
    64    29    61 1   
    65    29    62 1   
    66    63    64 1   
    67    63    68 1   
    68    63    69 1   
    69    63    70 1   
    70    64    65 1   
    71    64    71 1   
    72    64    72 1   
    73    65    66 1   
    74    65    93 1   
    75    66    67 1   
    76    66    73 1   
    77    66    74 1   
    78    67    68 1   
    79    67    75 1   
    80    67    76 1   
    81    77    78 1   
    82    77    93 1   
    83    78    79 1   
    84    78    80 1   
    85    78    81 1   
    86    79    83 1   
    87    79    84 1   
    88    79    85 1   
    89    80    86 1   
    90    80    87 1   
    91    80    88 1   
    92    81    89 1   
    93    81    90 1   
    94    81    91 1   
    95    82    93 2   
@<TRIPOS>SUBSTRUCTURE
     1 B3J         1 TEMP              0 ****  ****    0 ROOT
