@<TRIPOS>MOLECULE
B3K
   26    25     1     0     0
SMALL
No Charge or Current Charge


@<TRIPOS>ATOM
      1 N            0.3680    -3.3600    -0.7880 n8         1 B3K      -0.900800
      2 CB           0.7840    -2.0480    -0.2590 c3         1 B3K       0.165500
      3 CG           2.2680    -1.7550    -0.6240 c3         1 B3K      -0.060400
      4 CD           3.2830    -2.7730    -0.0450 c3         1 B3K      -0.066400
      5 CE           4.7510    -2.4140    -0.3680 c3         1 B3K      -0.114400
      6 CF           5.7550    -3.4320     0.2080 c3         1 B3K       0.134800
      7 NZ           7.1410    -3.0530    -0.1220 n8         1 B3K      -0.885800
      8 CA          -0.2150    -0.9880    -0.7740 c3         1 B3K      -0.235400
      9 C            0.0130     0.3560    -0.0650 c          1 B3K       0.927600
     10 O           -0.5170     0.5350     1.0240 o          1 B3K      -0.843800
     11 OXT          0.7250     1.1940    -0.6050 o          1 B3K      -0.843800
     12 H            0.4360    -3.3370    -1.8090 hn         1 B3K       0.316300
     13 H2          -0.6320    -3.4850    -0.6040 hn         1 B3K       0.316300
     14 HB           0.7020    -2.0880     0.8380 h1         1 B3K       0.075700
     15 HG2          2.3750    -1.7170    -1.7150 hc         1 B3K       0.043200
     16 HG3          2.5400    -0.7630    -0.2480 hc         1 B3K       0.043200
     17 HD2          3.0680    -3.7730    -0.4420 hc         1 B3K       0.039700
     18 HD3          3.1570    -2.8260     1.0430 hc         1 B3K       0.039700
     19 HE2          4.8750    -2.3590    -1.4570 hc         1 B3K       0.032200
     20 HE3          4.9730    -1.4180     0.0340 hc         1 B3K       0.032200
     21 HF1          5.6500    -3.4800     1.3010 h1         1 B3K       0.047700
     22 HF2          5.5520    -4.4300    -0.2050 h1         1 B3K       0.047700
     23 HNZ1         7.3180    -2.1060     0.2280 hn         1 B3K       0.327800
     24 HNZ2         7.2290    -2.9680    -1.1400 hn         1 B3K       0.327800
     25 HA1         -0.0560    -0.8910    -1.8560 hc         1 B3K       0.016200
     26 HA2         -1.2100    -1.3700    -0.5100 hc         1 B3K       0.016200
@<TRIPOS>BOND
     1     1     2 1   
     2     1    12 1   
     3     1    13 1   
     4     2     3 1   
     5     2     8 1   
     6     2    14 1   
     7     3     4 1   
     8     3    15 1   
     9     3    16 1   
    10     4     5 1   
    11     4    17 1   
    12     4    18 1   
    13     5     6 1   
    14     5    19 1   
    15     5    20 1   
    16     6     7 1   
    17     6    21 1   
    18     6    22 1   
    19     7    23 1   
    20     7    24 1   
    21     8     9 1   
    22     8    25 1   
    23     8    26 1   
    24     9    10 1   
    25     9    11 1   
@<TRIPOS>SUBSTRUCTURE
     1 B3K         1 TEMP              0 ****  ****    0 ROOT
