@<TRIPOS>MOLECULE
B3K
   26    25     1     0     0
SMALL
bcc


@<TRIPOS>ATOM
      1 N            0.4580    -3.3850    -0.8240 n8         1 B3K      -0.900800
      2 CB           0.8010    -2.0650    -0.2930 c3         1 B3K       0.165500
      3 CG           2.2640    -1.7560    -0.6020 c3         1 B3K      -0.060400
      4 CD           3.2570    -2.7570    -0.0250 c3         1 B3K      -0.066400
      5 CE           4.7050    -2.4060    -0.3450 c3         1 B3K      -0.114400
      6 CF           5.7030    -3.4140     0.2170 c3         1 B3K       0.134800
      7 NZ           7.1060    -3.1360    -0.0570 n8         1 B3K      -0.885800
      8 CA          -0.1150    -0.9510    -0.8020 c3         1 B3K      -0.235400
      9 C            0.0300     0.4110    -0.1020 c          1 B3K       0.927600
     10 O            0.3520     0.3990     1.1050 o          1 B3K      -0.843800
     11 OXT         -0.2250     1.4260    -0.7840 o          1 B3K      -0.843800
     12 H            0.5120    -3.3570    -1.8370 hn         1 B3K       0.316300
     13 H2          -0.5150    -3.5810    -0.6170 hn         1 B3K       0.316300
     14 HB           0.6920    -2.1200     0.7950 h1         1 B3K       0.075700
     15 HG2          2.3920    -1.7000    -1.6910 hc         1 B3K       0.043200
     16 HG3          2.4980    -0.7600    -0.2160 hc         1 B3K       0.043200
     17 HD2          3.0280    -3.7570    -0.4030 hc         1 B3K       0.039700
     18 HD3          3.1270    -2.8080     1.0620 hc         1 B3K       0.039700
     19 HE2          4.8340    -2.3430    -1.4320 hc         1 B3K       0.032200
     20 HE3          4.9410    -1.4120     0.0500 hc         1 B3K       0.032200
     21 HF1          5.5740    -3.4820     1.3020 h1         1 B3K       0.047700
     22 HF2          5.4690    -4.4090    -0.1760 h1         1 B3K       0.047700
     23 HNZ1         7.3430    -2.2250     0.3180 hn         1 B3K       0.327800
     24 HNZ2         7.2390    -3.0570    -1.0580 hn         1 B3K       0.327800
     25 HA1          0.0200    -0.8330    -1.8830 hc         1 B3K       0.016200
     26 HA2         -1.1570    -1.2710    -0.6640 hc         1 B3K       0.016200
@<TRIPOS>BOND
     1     1     2 1   
     2     1    12 1   
     3     1    13 1   
     4     2     3 1   
     5     2     8 1   
     6     2    14 1   
     7     3     4 1   
     8     3    15 1   
     9     3    16 1   
    10     4     5 1   
    11     4    17 1   
    12     4    18 1   
    13     5     6 1   
    14     5    19 1   
    15     5    20 1   
    16     6     7 1   
    17     6    21 1   
    18     6    22 1   
    19     7    23 1   
    20     7    24 1   
    21     8     9 1   
    22     8    25 1   
    23     8    26 1   
    24     9    10 1   
    25     9    11 1   
@<TRIPOS>SUBSTRUCTURE
     1 B3K         1 TEMP              0 ****  ****    0 ROOT
