@<TRIPOS>MOLECULE
B3L
   24    23     1     0     0
SMALL
abcg2


@<TRIPOS>ATOM
      1 O            2.6660    -0.7880    -0.9750 o          1 B3L      -0.742500
      2 C            2.5780     0.1380    -0.1410 c          1 B3L       0.731000
      3 CA           1.2330     0.8780    -0.0810 c3         1 B3L      -0.193400
      4 CB           0.0400    -0.0570     0.0810 c3         1 B3L       0.170500
      5 N            0.1860    -0.7860     1.3380 n8         1 B3L      -0.960200
      6 CG          -1.2740     0.7230    -0.0510 c3         1 B3L      -0.117400
      7 CD          -2.5570    -0.0920     0.1120 c3         1 B3L      -0.061700
      8 CE2         -3.7730     0.8290     0.0620 c3         1 B3L      -0.084600
      9 CE1         -2.6750    -1.1910    -0.9400 c3         1 B3L      -0.084600
     10 HA           1.2320     1.6100     0.7340 hc         1 B3L       0.013700
     11 HAA          1.1090     1.4500    -1.0080 hc         1 B3L       0.013700
     12 HB           0.0960    -0.7950    -0.7230 h1         1 B3L       0.076700
     13 HN           0.0630    -0.1440     2.1140 hn         1 B3L       0.365000
     14 HG          -1.2730     1.5330     0.6910 hc         1 B3L       0.031700
     15 HGA         -1.2940     1.2140    -1.0330 hc         1 B3L       0.031700
     16 HD          -2.5420    -0.5640     1.1010 hc         1 B3L       0.032700
     17 H3E2        -4.7020     0.2720     0.1990 hc         1 B3L       0.026033
     18 H2E2        -3.7250     1.5930     0.8400 hc         1 B3L       0.026033
     19 H1E2        -3.8350     1.3410    -0.9020 hc         1 B3L       0.026033
     20 H3E1        -3.6020    -1.7550    -0.8200 hc         1 B3L       0.026033
     21 H2E1        -2.6780    -0.7640    -1.9470 hc         1 B3L       0.026033
     22 H1E1        -1.8510    -1.9030    -0.8880 hc         1 B3L       0.026033
     23 OXT          3.4870     0.5280     0.6210 o          1 B3L      -0.742500
     24 HNA         -0.5510    -1.4740     1.4350 hn         1 B3L       0.365000
@<TRIPOS>BOND
     1     1     2 1   
     2     2     3 1   
     3     2    23 1   
     4     3     4 1   
     5     3    10 1   
     6     3    11 1   
     7     4     5 1   
     8     4     6 1   
     9     4    12 1   
    10     5    13 1   
    11     5    24 1   
    12     6     7 1   
    13     6    14 1   
    14     6    15 1   
    15     7     8 1   
    16     7     9 1   
    17     7    16 1   
    18     8    17 1   
    19     8    18 1   
    20     8    19 1   
    21     9    20 1   
    22     9    21 1   
    23     9    22 1   
@<TRIPOS>SUBSTRUCTURE
     1 B3L         1 TEMP              0 ****  ****    0 ROOT
