@<TRIPOS>MOLECULE
B3L
   24    23     1     0     0
SMALL
No Charge or Current Charge


@<TRIPOS>ATOM
      1 O            2.7680    -0.3040    -1.4800 o          1 B3L      -0.742500
      2 C            2.5700     0.0730    -0.3330 c          1 B3L       0.731000
      3 CA           1.3030     0.9010    -0.0560 c3         1 B3L      -0.193400
      4 CB           0.0810    -0.0240     0.1600 c3         1 B3L       0.170500
      5 N            0.1280    -0.6410     1.4960 n8         1 B3L      -0.960200
      6 CG          -1.2640     0.7370    -0.0180 c3         1 B3L      -0.117400
      7 CD          -2.5640    -0.1130     0.0990 c3         1 B3L      -0.061700
      8 CE2         -3.8180     0.7870     0.0140 c3         1 B3L      -0.084600
      9 CE1         -2.6360    -1.2480    -0.9520 c3         1 B3L      -0.084600
     10 HA           1.4170     1.5200     0.8430 hc         1 B3L       0.013700
     11 HAA          1.0630     1.4850    -0.9530 hc         1 B3L       0.013700
     12 HB           0.1210    -0.8220    -0.5970 h1         1 B3L       0.076700
     13 HN           0.1420     0.1050     2.1970 hn         1 B3L       0.365000
     14 HG          -1.3050     1.5510     0.7180 hc         1 B3L       0.031700
     15 HGA         -1.2630     1.2210    -1.0030 hc         1 B3L       0.031700
     16 HD          -2.5840    -0.5820     1.0910 hc         1 B3L       0.032700
     17 H3E2        -4.7310     0.1950     0.1500 hc         1 B3L       0.026033
     18 H2E2        -3.7970     1.5570     0.7940 hc         1 B3L       0.026033
     19 H1E2        -3.8750     1.2870    -0.9610 hc         1 B3L       0.026033
     20 H3E1        -3.5820    -1.7940    -0.8660 hc         1 B3L       0.026033
     21 H2E1        -2.5660    -0.8430    -1.9690 hc         1 B3L       0.026033
     22 H1E1        -1.8250    -1.9720    -0.8110 hc         1 B3L       0.026033
     23 OXT          3.3370    -0.1620     0.5910 o          1 B3L      -0.742500
     24 HNA         -0.7640    -1.1170     1.6630 hn         1 B3L       0.365000
@<TRIPOS>BOND
     1     1     2 1   
     2     2     3 1   
     3     2    23 1   
     4     3     4 1   
     5     3    10 1   
     6     3    11 1   
     7     4     5 1   
     8     4     6 1   
     9     4    12 1   
    10     5    13 1   
    11     5    24 1   
    12     6     7 1   
    13     6    14 1   
    14     6    15 1   
    15     7     8 1   
    16     7     9 1   
    17     7    16 1   
    18     8    17 1   
    19     8    18 1   
    20     8    19 1   
    21     9    20 1   
    22     9    21 1   
    23     9    22 1   
@<TRIPOS>SUBSTRUCTURE
     1 B3L         1 TEMP              0 ****  ****    0 ROOT
