@<TRIPOS>MOLECULE
B3M
   22    21     1     0     0
SMALL
No Charge or Current Charge


@<TRIPOS>ATOM
      1 N           -0.8230     1.0630     1.1800 n8         1 B3M      -1.013200
      2 CA          -1.9530    -0.8160     0.0720 c3         1 B3M      -0.244400
      3 C           -3.2260    -0.0680    -0.3450 c          1 B3M       0.713000
      4 O           -3.4950    -0.0100    -1.5340 o          1 B3M      -0.738500
      5 CB          -0.7400     0.1380     0.0400 c3         1 B3M       0.177500
      6 CG           0.6120    -0.6200     0.0440 c3         1 B3M      -0.067400
      7 CD           1.8440     0.3010    -0.0900 c3         1 B3M       0.093600
      8 SE           3.4000    -0.7010    -0.1710 ss         1 B3M      -0.489000
      9 CF           4.6430     0.6610    -0.3290 c3         1 B3M       0.047900
     10 HN          -1.8010     1.3680     1.2610 hn         1 B3M       0.398000
     11 HA          -2.0370    -1.2000     1.0970 hc         1 B3M       0.024700
     12 HAA         -1.7380    -1.5990    -0.6660 hc         1 B3M       0.024700
     13 HB          -0.7960     0.7270    -0.8890 h1         1 B3M       0.063700
     14 HG           0.7010    -1.2140     0.9620 hc         1 B3M       0.039200
     15 HGA          0.6230    -1.3290    -0.7930 hc         1 B3M       0.039200
     16 HD           1.7560     0.9040    -1.0030 h1         1 B3M       0.061700
     17 HDA          1.9000     0.9810     0.7700 h1         1 B3M       0.061700
     18 HF           4.4440     1.2450    -1.2360 h1         1 B3M       0.049367
     19 HFA          4.5860     1.3220     0.5460 h1         1 B3M       0.049367
     20 HFB          5.6530     0.2350    -0.3910 h1         1 B3M       0.049367
     21 HNA         -0.6810     0.5270     2.0420 hn         1 B3M       0.398000
     22 OXT         -3.8880     0.4740     0.5270 o          1 B3M      -0.738500
@<TRIPOS>BOND
     1     1     5 1   
     2     1    10 1   
     3     1    21 1   
     4     2     3 1   
     5     2     5 1   
     6     2    11 1   
     7     2    12 1   
     8     3     4 1   
     9     3    22 1   
    10     5     6 1   
    11     5    13 1   
    12     6     7 1   
    13     6    14 1   
    14     6    15 1   
    15     7     8 1   
    16     7    16 1   
    17     7    17 1   
    18     8     9 1   
    19     9    18 1   
    20     9    19 1   
    21     9    20 1   
@<TRIPOS>SUBSTRUCTURE
     1 B3M         1 TEMP              0 ****  ****    0 ROOT
