@<TRIPOS>MOLECULE
B3M
   22    21     1     0     0
SMALL
bcc


@<TRIPOS>ATOM
      1 N           -0.7580     1.3180     0.8810 n8         1 B3M      -0.902800
      2 CA          -1.8740    -0.7970     0.1350 c3         1 B3M      -0.244400
      3 C           -3.2750    -0.2090    -0.1160 c          1 B3M       0.923600
      4 O           -3.3510     0.8990    -0.6860 o          1 B3M      -0.843800
      5 CB          -0.7030     0.1710    -0.0190 c3         1 B3M       0.177500
      6 CG           0.6210    -0.5700     0.1680 c3         1 B3M      -0.067400
      7 CD           1.8360     0.3020    -0.1050 c3         1 B3M       0.045700
      8 SE           3.3510    -0.6850     0.0670 ss         1 B3M      -0.393200
      9 CF           4.5890     0.5570    -0.3640 c3         1 B3M       0.000000
     10 HN          -1.6350     1.7960     0.7120 hn         1 B3M       0.342800
     11 HA          -1.8500    -1.2440     1.1360 hc         1 B3M       0.024700
     12 HAA         -1.7460    -1.6370    -0.5600 hc         1 B3M       0.024700
     13 HB          -0.7210     0.5690    -1.0390 h1         1 B3M       0.063700
     14 HG           0.6720    -0.9700     1.1870 hc         1 B3M       0.039200
     15 HGA          0.6370    -1.4340    -0.5030 hc         1 B3M       0.039200
     16 HD           1.7920     0.7050    -1.1210 h1         1 B3M       0.061700
     17 HDA          1.8710     1.1430     0.5880 h1         1 B3M       0.061700
     18 HF           4.4290     0.9410    -1.3710 h1         1 B3M       0.049367
     19 HFA          4.5810     1.3870     0.3420 h1         1 B3M       0.049367
     20 HFB          5.5670     0.0800    -0.3260 h1         1 B3M       0.049367
     21 HNA         -0.8090     0.9820     1.8370 hn         1 B3M       0.342800
     22 OXT         -4.2380    -0.9120     0.2520 o          1 B3M      -0.843800
@<TRIPOS>BOND
     1     1     5 1   
     2     1    10 1   
     3     1    21 1   
     4     2     3 1   
     5     2     5 1   
     6     2    11 1   
     7     2    12 1   
     8     3     4 1   
     9     3    22 1   
    10     5     6 1   
    11     5    13 1   
    12     6     7 1   
    13     6    14 1   
    14     6    15 1   
    15     7     8 1   
    16     7    16 1   
    17     7    17 1   
    18     8     9 1   
    19     9    18 1   
    20     9    19 1   
    21     9    20 1   
@<TRIPOS>SUBSTRUCTURE
     1 B3M         1 TEMP              0 ****  ****    0 ROOT
