@<TRIPOS>MOLECULE
B3N
   47    47     1     0     0
SMALL
abcg2


@<TRIPOS>ATOM
      1 O23          2.0680    -2.5700    -0.2290 o          1 B3N      -0.617100
      2 C13          2.1620    -1.3500    -0.1240 c          1 B3N       0.621700
      3 C14          3.4850    -0.6790    -0.0590 ca         1 B3N      -0.215600
      4 C15          4.6140    -1.4540     0.2090 ca         1 B3N      -0.020500
      5 C16          5.8770    -0.9060     0.2740 ca         1 B3N      -0.211500
      6 C17          6.0840     0.4720     0.0520 ca         1 B3N       0.365000
      7 N20          7.3250     1.0210     0.1020 nh         1 B3N      -0.829400
      8 C22          8.4730     0.1930     0.3890 c3         1 B3N       0.220600
      9 C21          7.5120     2.4230    -0.1960 c3         1 B3N       0.220600
     10 C18          4.9420     1.2520    -0.2300 ca         1 B3N      -0.211500
     11 C19          3.6850     0.6840    -0.2810 ca         1 B3N      -0.020500
     12 N12          1.0710    -0.5660    -0.0650 ns         1 B3N      -0.507900
     13 C10         -0.2710    -1.1090    -0.1040 c3         1 B3N       0.105000
     14 C9          -1.3090    -0.0000    -0.1250 c3         1 B3N      -0.093400
     15 C8          -2.7250    -0.5600    -0.1720 c3         1 B3N      -0.073400
     16 C7          -3.7960     0.5210    -0.1760 c3         1 B3N      -0.075400
     17 C6          -5.2060    -0.0540    -0.2230 c3         1 B3N      -0.067400
     18 C5          -6.2700     1.0380    -0.2220 c3         1 B3N      -0.159400
     19 C1          -7.6720     0.4830    -0.3080 c          1 B3N       0.600100
     20 O2          -8.0010    -0.3890    -1.0920 o          1 B3N      -0.566100
     21 N3          -8.5210     1.0330     0.5840 ns         1 B3N      -0.388400
     22 O4          -9.8590     0.7920     0.4850 oh         1 B3N      -0.428100
     23 H15          4.5020    -2.5180     0.3730 ha         1 B3N       0.116500
     24 H16          6.7090    -1.5610     0.4890 ha         1 B3N       0.113500
     25 H221         8.6300    -0.5780    -0.3710 h1         1 B3N       0.037700
     26 H222         9.3650     0.8120     0.4210 h1         1 B3N       0.037700
     27 H223         8.3850    -0.3040     1.3590 h1         1 B3N       0.037700
     28 H211         7.0160     3.0700     0.5330 h1         1 B3N       0.037700
     29 H212         8.5720     2.6560    -0.1770 h1         1 B3N       0.037700
     30 H213         7.1340     2.6830    -1.1880 h1         1 B3N       0.037700
     31 H18          5.0320     2.3120    -0.4190 ha         1 B3N       0.113500
     32 H19          2.8560     1.3390    -0.5230 ha         1 B3N       0.116500
     33 H12          1.1700     0.4090     0.1640 hn         1 B3N       0.310500
     34 H101        -0.3820    -1.7350    -0.9930 h1         1 B3N       0.051200
     35 H102        -0.4430    -1.7600     0.7590 h1         1 B3N       0.051200
     36 H91         -1.1950     0.6300     0.7640 hc         1 B3N       0.041200
     37 H92         -1.1390     0.6470    -0.9910 hc         1 B3N       0.041200
     38 H81         -2.8370    -1.1880    -1.0620 hc         1 B3N       0.045700
     39 H82         -2.8800    -1.2220     0.6860 hc         1 B3N       0.045700
     40 H71         -3.6860     1.1480     0.7150 hc         1 B3N       0.037200
     41 H72         -3.6460     1.1850    -1.0350 hc         1 B3N       0.037200
     42 H61         -5.3180    -0.6760    -1.1150 hc         1 B3N       0.056200
     43 H62         -5.3570    -0.7140     0.6370 hc         1 B3N       0.056200
     44 H51         -6.1530     1.6720     0.6600 hc         1 B3N       0.058200
     45 H52         -6.1280     1.6920    -1.0890 hc         1 B3N       0.058200
     46 H24         -8.2830     1.8680     1.1000 hn         1 B3N       0.330500
     47 H25        -10.0560     0.1090     1.1390 ho         1 B3N       0.447000
@<TRIPOS>BOND
     1     1     2 2   
     2     2     3 1   
     3     2    12 1   
     4     3     4 ar  
     5     3    11 ar  
     6     4     5 ar  
     7     4    23 1   
     8     5     6 ar  
     9     5    24 1   
    10     6     7 1   
    11     6    10 ar  
    12     7     8 1   
    13     7     9 1   
    14     8    25 1   
    15     8    26 1   
    16     8    27 1   
    17     9    28 1   
    18     9    29 1   
    19     9    30 1   
    20    10    11 ar  
    21    10    31 1   
    22    11    32 1   
    23    12    13 1   
    24    12    33 1   
    25    13    14 1   
    26    13    34 1   
    27    13    35 1   
    28    14    15 1   
    29    14    36 1   
    30    14    37 1   
    31    15    16 1   
    32    15    38 1   
    33    15    39 1   
    34    16    17 1   
    35    16    40 1   
    36    16    41 1   
    37    17    18 1   
    38    17    42 1   
    39    17    43 1   
    40    18    19 1   
    41    18    44 1   
    42    18    45 1   
    43    19    20 2   
    44    19    21 1   
    45    21    22 1   
    46    21    46 1   
    47    22    47 1   
@<TRIPOS>SUBSTRUCTURE
     1 B3N         1 TEMP              0 ****  ****    0 ROOT
