@<TRIPOS>MOLECULE
B3N
   47    47     1     0     0
SMALL
No Charge or Current Charge


@<TRIPOS>ATOM
      1 O23          2.0970    -2.7400    -0.0220 o          1 B3N      -0.617100
      2 C13          2.1910    -1.5200    -0.0410 c          1 B3N       0.621700
      3 C14          3.5290    -0.8140    -0.0060 ca         1 B3N      -0.215600
      4 C15          4.7140    -1.5790     0.0490 ca         1 B3N      -0.020500
      5 C16          5.9710    -0.9540     0.0830 ca         1 B3N      -0.211500
      6 C17          6.0820     0.4480     0.0620 ca         1 B3N       0.365000
      7 N20          7.3520     1.0760     0.0960 nh         1 B3N      -0.829400
      8 C22          8.5180     0.4300     0.7450 c3         1 B3N       0.220600
      9 C21          7.5740     2.4080    -0.5160 c3         1 B3N       0.220600
     10 C18          4.9020     1.2120     0.0070 ca         1 B3N      -0.211500
     11 C19          3.6400     0.5960    -0.0260 ca         1 B3N      -0.020500
     12 N12          1.0700    -0.7230    -0.0960 ns         1 B3N      -0.507900
     13 C10         -0.3020    -1.2280    -0.1360 c3         1 B3N       0.105000
     14 C9          -1.3270    -0.0790    -0.1850 c3         1 B3N      -0.093400
     15 C8          -2.7870    -0.5800    -0.2270 c3         1 B3N      -0.073400
     16 C7          -3.8180     0.5700    -0.2760 c3         1 B3N      -0.075400
     17 C6          -5.2790     0.0700    -0.3190 c3         1 B3N      -0.067400
     18 C5          -6.3100     1.2220    -0.3690 c3         1 B3N      -0.159400
     19 C1          -7.7500     0.6940    -0.4100 c          1 B3N       0.600100
     20 O2          -8.2320     0.1840    -1.4140 o          1 B3N      -0.566100
     21 N3          -8.4730     0.8590     0.7660 ns         1 B3N      -0.388400
     22 O4          -9.9090     0.6670     0.7950 oh         1 B3N      -0.428100
     23 H15          4.6660    -2.6660     0.0630 ha         1 B3N       0.116500
     24 H16          6.8610    -1.5730     0.1140 ha         1 B3N       0.113500
     25 H221         9.0130    -0.2600     0.0490 h1         1 B3N       0.037700
     26 H222         9.2510     1.1820     1.0700 h1         1 B3N       0.037700
     27 H223         8.2030    -0.1310     1.6350 h1         1 B3N       0.037700
     28 H211         7.2970     3.2060     0.1850 h1         1 B3N       0.037700
     29 H212         8.6290     2.5400    -0.7940 h1         1 B3N       0.037700
     30 H213         6.9760     2.5170    -1.4310 h1         1 B3N       0.037700
     31 H18          4.9530     2.2960     0.0020 ha         1 B3N       0.113500
     32 H19          2.7590     1.2330    -0.0660 ha         1 B3N       0.116500
     33 H12          1.2170     0.2770    -0.1100 hn         1 B3N       0.310500
     34 H101        -0.4190    -1.8650    -1.0230 h1         1 B3N       0.051200
     35 H102        -0.4790    -1.8420     0.7570 h1         1 B3N       0.051200
     36 H91         -1.1900     0.5620     0.6950 hc         1 B3N       0.041200
     37 H92         -1.1310     0.5400    -1.0700 hc         1 B3N       0.041200
     38 H81         -2.9220    -1.2230    -1.1060 hc         1 B3N       0.045700
     39 H82         -2.9810    -1.2010     0.6570 hc         1 B3N       0.045700
     40 H71         -3.6830     1.2120     0.6030 hc         1 B3N       0.037200
     41 H72         -3.6240     1.1900    -1.1600 hc         1 B3N       0.037200
     42 H61         -5.4140    -0.5750    -1.1970 hc         1 B3N       0.056200
     43 H62         -5.4740    -0.5510     0.5650 hc         1 B3N       0.056200
     44 H51         -6.1680     1.8550     0.5160 hc         1 B3N       0.058200
     45 H52         -6.1290     1.8110    -1.2760 hc         1 B3N       0.058200
     46 H24         -8.0790     1.4240     1.5180 hn         1 B3N       0.330500
     47 H25        -10.0490     0.0730     1.5710 ho         1 B3N       0.447000
@<TRIPOS>BOND
     1     1     2 2   
     2     2     3 1   
     3     2    12 1   
     4     3     4 ar  
     5     3    11 ar  
     6     4     5 ar  
     7     4    23 1   
     8     5     6 ar  
     9     5    24 1   
    10     6     7 1   
    11     6    10 ar  
    12     7     8 1   
    13     7     9 1   
    14     8    25 1   
    15     8    26 1   
    16     8    27 1   
    17     9    28 1   
    18     9    29 1   
    19     9    30 1   
    20    10    11 ar  
    21    10    31 1   
    22    11    32 1   
    23    12    13 1   
    24    12    33 1   
    25    13    14 1   
    26    13    34 1   
    27    13    35 1   
    28    14    15 1   
    29    14    36 1   
    30    14    37 1   
    31    15    16 1   
    32    15    38 1   
    33    15    39 1   
    34    16    17 1   
    35    16    40 1   
    36    16    41 1   
    37    17    18 1   
    38    17    42 1   
    39    17    43 1   
    40    18    19 1   
    41    18    44 1   
    42    18    45 1   
    43    19    20 2   
    44    19    21 1   
    45    21    22 1   
    46    21    46 1   
    47    22    47 1   
@<TRIPOS>SUBSTRUCTURE
     1 B3N         1 TEMP              0 ****  ****    0 ROOT
