@<TRIPOS>MOLECULE
B3P
   45    44     1     0     0
SMALL
bcc


@<TRIPOS>ATOM
      1 C1          -0.0950     0.5270     0.0090 c3         1 B3P      -0.082400
      2 C2          -0.2530    -0.3120     1.2680 c3         1 B3P       0.173800
      3 C3          -0.2540    -0.3050    -1.2540 c3         1 B3P       0.173800
      4 N1          -0.0720     0.5200    -2.4310 n7         1 B3P      -0.783700
      5 C4          -0.1400    -0.1340    -3.7280 c3         1 B3P       0.206700
      6 C5           0.0480     0.9320    -4.8130 c3         1 B3P       0.133900
      7 C6           0.9150    -1.2430    -3.8460 c3         1 B3P       0.133900
      8 C7          -1.4880    -0.8320    -3.9890 c3         1 B3P       0.133900
      9 N2          -0.0900     0.5110     2.4500 n7         1 B3P      -0.783700
     10 C8          -0.1390    -0.1550     3.7420 c3         1 B3P       0.206700
     11 C9          -0.0010     0.9070     4.8380 c3         1 B3P       0.133900
     12 C10          0.9590    -1.2230     3.8560 c3         1 B3P       0.133900
     13 C11         -1.4610    -0.9070     3.9910 c3         1 B3P       0.133900
     14 O1           1.2370     1.5670     4.7590 oh         1 B3P      -0.569800
     15 O2           2.1890    -0.7630     3.3630 oh         1 B3P      -0.569800
     16 O3          -2.5410    -0.0070     3.8990 oh         1 B3P      -0.569800
     17 O4           1.3190     1.5260    -4.7340 oh         1 B3P      -0.569800
     18 O5           2.1620    -0.8370    -3.3450 oh         1 B3P      -0.569800
     19 O6          -2.5310     0.1120    -3.9150 oh         1 B3P      -0.569800
     20 H11         -0.8400     1.3330     0.0110 hc         1 B3P       0.058700
     21 H12          0.8880     1.0050     0.0110 hc         1 B3P       0.058700
     22 H21          0.5150    -1.0890     1.2650 h1         1 B3P       0.019950
     23 H22         -1.2200    -0.8360     1.2270 h1         1 B3P       0.019950
     24 H31          0.5050    -1.0910    -1.2480 h1         1 B3P       0.019950
     25 H32         -1.2280    -0.8180    -1.2200 h1         1 B3P       0.019950
     26 HN1         -0.7550     1.2690    -2.4120 hn         1 B3P       0.367800
     27 H51         -0.1070     0.4500    -5.7890 h1         1 B3P       0.015950
     28 H52         -0.7450     1.6830    -4.7060 h1         1 B3P       0.015950
     29 H61          0.5530    -2.1300    -3.3070 h1         1 B3P       0.015950
     30 H62          0.9780    -1.5360    -4.9040 h1         1 B3P       0.015950
     31 H71         -1.4590    -1.3240    -4.9720 h1         1 B3P       0.015950
     32 H72         -1.6230    -1.6280    -3.2480 h1         1 B3P       0.015950
     33 HN2         -0.7930     1.2410     2.4370 hn         1 B3P       0.367800
     34 H91         -0.1250     0.4050     5.8080 h1         1 B3P       0.015950
     35 H92         -0.8320     1.6170     4.7420 h1         1 B3P       0.015950
     36 H101         1.0300    -1.5210     4.9120 h1         1 B3P       0.015950
     37 H102         0.6330    -2.1190     3.3090 h1         1 B3P       0.015950
     38 H111        -1.5560    -1.7120     3.2520 h1         1 B3P       0.015950
     39 H112        -1.4240    -1.3920     4.9770 h1         1 B3P       0.015950
     40 HO1          1.2380     2.2520     5.4340 ho         1 B3P       0.396833
     41 HO2          2.7940    -1.5100     3.3690 ho         1 B3P       0.396833
     42 HO3         -3.3560    -0.5090     3.9750 ho         1 B3P       0.396833
     43 HO4          1.3450     2.2340    -5.3830 ho         1 B3P       0.396833
     44 HO5          2.7200    -1.6180    -3.3050 ho         1 B3P       0.396833
     45 HO6         -3.3660    -0.3600    -3.9670 ho         1 B3P       0.396833
@<TRIPOS>BOND
     1     1     2 1   
     2     1     3 1   
     3     1    20 1   
     4     1    21 1   
     5     2     9 1   
     6     2    22 1   
     7     2    23 1   
     8     3     4 1   
     9     3    24 1   
    10     3    25 1   
    11     4     5 1   
    12     4    26 1   
    13     5     6 1   
    14     5     7 1   
    15     5     8 1   
    16     6    17 1   
    17     6    27 1   
    18     6    28 1   
    19     7    18 1   
    20     7    29 1   
    21     7    30 1   
    22     8    19 1   
    23     8    31 1   
    24     8    32 1   
    25     9    10 1   
    26     9    33 1   
    27    10    11 1   
    28    10    12 1   
    29    10    13 1   
    30    11    14 1   
    31    11    34 1   
    32    11    35 1   
    33    12    15 1   
    34    12    36 1   
    35    12    37 1   
    36    13    16 1   
    37    13    38 1   
    38    13    39 1   
    39    14    40 1   
    40    15    41 1   
    41    16    42 1   
    42    17    43 1   
    43    18    44 1   
    44    19    45 1   
@<TRIPOS>SUBSTRUCTURE
     1 B3P         1 TEMP              0 ****  ****    0 ROOT
