@<TRIPOS>MOLECULE
B3P
   45    44     1     0     0
SMALL
No Charge or Current Charge


@<TRIPOS>ATOM
      1 C1          -0.0700     0.5040     0.0100 c3         1 B3P      -0.082400
      2 C2          -0.0800    -0.3570     1.2870 c3         1 B3P       0.173800
      3 C3          -0.0780    -0.3510    -1.2710 c3         1 B3P       0.173800
      4 N1          -0.0680     0.5200    -2.4650 n7         1 B3P      -0.838900
      5 C4          -0.1330    -0.1400    -3.8230 c3         1 B3P       0.206700
      6 C5           0.0280     0.9530    -4.9530 c3         1 B3P       0.157100
      7 C6           0.9310    -1.2960    -3.9970 c3         1 B3P       0.157100
      8 C7          -1.5570    -0.7830    -3.9960 c3         1 B3P       0.157100
      9 N2          -0.0720     0.5080     2.4860 n7         1 B3P      -0.838900
     10 C8          -0.1390    -0.1580     3.8400 c3         1 B3P       0.206700
     11 C9           0.0200     0.9290     4.9760 c3         1 B3P       0.157100
     12 C10          0.9250    -1.3150     4.0110 c3         1 B3P       0.157100
     13 C11         -1.5630    -0.8020     4.0080 c3         1 B3P       0.157100
     14 O1           1.2280     1.7130     4.8820 oh         1 B3P      -0.632000
     15 O2           2.2830    -0.9240     3.7230 oh         1 B3P      -0.632000
     16 O3          -2.6200     0.1350     3.7140 oh         1 B3P      -0.632000
     17 O4           1.2360     1.7360    -4.8540 oh         1 B3P      -0.632000
     18 O5           2.2890    -0.9060    -3.7050 oh         1 B3P      -0.632000
     19 O6          -2.6140     0.1530    -3.6990 oh         1 B3P      -0.632000
     20 H11         -0.9460     1.1640     0.0110 hc         1 B3P       0.058700
     21 H12          0.8220     1.1420     0.0130 hc         1 B3P       0.058700
     22 H21          0.8010    -1.0120     1.2750 h1         1 B3P       0.019950
     23 H22         -0.9740    -0.9940     1.2740 h1         1 B3P       0.019950
     24 H31          0.8030    -1.0060    -1.2600 h1         1 B3P       0.019950
     25 H32         -0.9720    -0.9870    -1.2620 h1         1 B3P       0.019950
     26 HN1         -0.9010     1.1170    -2.4180 hn         1 B3P       0.423000
     27 H51         -0.0070     0.4540    -5.9300 h1         1 B3P       0.015950
     28 H52         -0.8330     1.6320    -4.9160 h1         1 B3P       0.015950
     29 H61          0.6520    -2.1340    -3.3450 h1         1 B3P       0.015950
     30 H62          0.8700    -1.6710    -5.0270 h1         1 B3P       0.015950
     31 H71         -1.6610    -1.1510    -5.0250 h1         1 B3P       0.015950
     32 H72         -1.6440    -1.6550    -3.3350 h1         1 B3P       0.015950
     33 HN2         -0.9050     1.1050     2.4400 hn         1 B3P       0.423000
     34 H91         -0.0170     0.4250     5.9510 h1         1 B3P       0.015950
     35 H92         -0.8410     1.6090     4.9400 h1         1 B3P       0.015950
     36 H101         0.8620    -1.6950     5.0390 h1         1 B3P       0.015950
     37 H102         0.6470    -2.1500     3.3540 h1         1 B3P       0.015950
     38 H111        -1.6500    -1.6710     3.3430 h1         1 B3P       0.015950
     39 H112        -1.6680    -1.1750     5.0350 h1         1 B3P       0.015950
     40 HO1          1.1870     2.3880     5.5920 ho         1 B3P       0.435833
     41 HO2          2.8450    -1.7170     3.8580 ho         1 B3P       0.435833
     42 HO3         -3.4690    -0.3460     3.8250 ho         1 B3P       0.435833
     43 HO4          1.1960     2.4150    -5.5610 ho         1 B3P       0.435833
     44 HO5          2.8510    -1.6990    -3.8430 ho         1 B3P       0.435833
     45 HO6         -3.4630    -0.3270    -3.8140 ho         1 B3P       0.435833
@<TRIPOS>BOND
     1     1     2 1   
     2     1     3 1   
     3     1    20 1   
     4     1    21 1   
     5     2     9 1   
     6     2    22 1   
     7     2    23 1   
     8     3     4 1   
     9     3    24 1   
    10     3    25 1   
    11     4     5 1   
    12     4    26 1   
    13     5     6 1   
    14     5     7 1   
    15     5     8 1   
    16     6    17 1   
    17     6    27 1   
    18     6    28 1   
    19     7    18 1   
    20     7    29 1   
    21     7    30 1   
    22     8    19 1   
    23     8    31 1   
    24     8    32 1   
    25     9    10 1   
    26     9    33 1   
    27    10    11 1   
    28    10    12 1   
    29    10    13 1   
    30    11    14 1   
    31    11    34 1   
    32    11    35 1   
    33    12    15 1   
    34    12    36 1   
    35    12    37 1   
    36    13    16 1   
    37    13    38 1   
    38    13    39 1   
    39    14    40 1   
    40    15    41 1   
    41    16    42 1   
    42    17    43 1   
    43    18    44 1   
    44    19    45 1   
@<TRIPOS>SUBSTRUCTURE
     1 B3P         1 TEMP              0 ****  ****    0 ROOT
