@<TRIPOS>MOLECULE
B3Q
   22    21     1     0     0
SMALL
No Charge or Current Charge


@<TRIPOS>ATOM
      1 N           -0.8790     1.0600     1.3980 n8         1 B3Q      -0.962200
      2 CB          -0.6070     0.3260     0.1520 c3         1 B3Q       0.173500
      3 CG           0.8230    -0.2750     0.2030 c3         1 B3Q      -0.113400
      4 CA          -1.6860    -0.7560    -0.0940 c3         1 B3Q      -0.193400
      5 C           -2.9930    -0.1180    -0.5960 c          1 B3Q       0.731000
      6 O           -3.0910     0.1200    -1.7920 o          1 B3Q      -0.742000
      7 HN          -0.9040     0.3890     2.1720 hn         1 B3Q       0.366500
      8 HB          -0.6350     1.0410    -0.6850 h1         1 B3Q       0.069700
      9 HG           0.8890    -0.9960     1.0270 hc         1 B3Q       0.049200
     10 HGA          0.9930    -0.8450    -0.7200 hc         1 B3Q       0.049200
     11 HA          -1.2780    -1.3900    -0.8910 hc         1 B3Q       0.017200
     12 HAA         -1.8400    -1.2950     0.8500 hc         1 B3Q       0.017200
     13 HNA         -0.0700     1.6510     1.6100 hn         1 B3Q       0.366500
     14 CD           1.9630     0.7720     0.3410 c3         1 B3Q      -0.157400
     15 OXT         -3.8850     0.1110     0.2080 o          1 B3Q      -0.742000
     16 CE           3.3430     0.1120     0.2380 c          1 B3Q       0.601100
     17 H8           1.8440     1.4960    -0.4750 hc         1 B3Q       0.049200
     18 H9           1.8840     1.2730     1.3120 hc         1 B3Q       0.049200
     19 NF2          3.9260     0.1380    -0.9800 nt         1 B3Q      -0.619000
     20 OF1          3.9080    -0.4140     1.1810 o          1 B3Q      -0.616100
     21 H11          3.4520     0.5730    -1.7570 hn         1 B3Q       0.304000
     22 H12          4.8350    -0.2830    -1.1020 hn         1 B3Q       0.304000
@<TRIPOS>BOND
     1     1     2 1   
     2     1     7 1   
     3     1    13 1   
     4     2     3 1   
     5     2     4 1   
     6     2     8 1   
     7     3     9 1   
     8     3    10 1   
     9     3    14 1   
    10     4     5 1   
    11     4    11 1   
    12     4    12 1   
    13     5     6 1   
    14     5    15 1   
    15    14    16 1   
    16    14    17 1   
    17    14    18 1   
    18    16    19 1   
    19    16    20 2   
    20    19    21 1   
    21    19    22 1   
@<TRIPOS>SUBSTRUCTURE
     1 B3Q         1 TEMP              0 ****  ****    0 ROOT
