@<TRIPOS>MOLECULE
B3Q
   22    21     1     0     0
SMALL
bcc


@<TRIPOS>ATOM
      1 N           -0.8610     1.2660     1.0480 n8         1 B3Q      -0.851800
      2 CB          -0.6050     0.2800     0.0050 c3         1 B3Q       0.173500
      3 CG           0.7580    -0.4140     0.1080 c3         1 B3Q      -0.113400
      4 CA          -1.7260    -0.7510     0.0140 c3         1 B3Q      -0.193400
      5 C           -3.1160    -0.1440    -0.2340 c          1 B3Q       0.941600
      6 O           -3.2320     0.5890    -1.2400 o          1 B3Q      -0.847300
      7 HN          -0.7430     0.8340     1.9580 hn         1 B3Q       0.311300
      8 HB          -0.6440     0.8120    -0.9520 h1         1 B3Q       0.069700
      9 HG           0.7970    -0.9980     1.0330 hc         1 B3Q       0.049200
     10 HGA          0.8530    -1.1300    -0.7150 hc         1 B3Q       0.049200
     11 HA          -1.5270    -1.4930    -0.7680 hc         1 B3Q       0.017200
     12 HAA         -1.7090    -1.2950     0.9650 hc         1 B3Q       0.017200
     13 HNA         -0.1800     2.0140     1.0050 hn         1 B3Q       0.311300
     14 CD           1.9300     0.5580     0.0620 c3         1 B3Q      -0.157400
     15 OXT         -4.0280    -0.4470     0.5620 o          1 B3Q      -0.847300
     16 CE           3.2770    -0.1290     0.1290 c          1 B3Q       0.668100
     17 H8           1.8650     1.1840    -0.8320 hc         1 B3Q       0.049200
     18 H9           1.8850     1.2430     0.9160 hc         1 B3Q       0.049200
     19 NF2          4.2500     0.4530    -0.5890 nt         1 B3Q      -0.686000
     20 OF1          3.4680    -1.1310     0.8060 o          1 B3Q      -0.616100
     21 H11          4.0860     1.2850    -1.1290 hn         1 B3Q       0.304000
     22 H12          5.1930     0.1010    -0.5540 hn         1 B3Q       0.304000
@<TRIPOS>BOND
     1     1     2 1   
     2     1     7 1   
     3     1    13 1   
     4     2     3 1   
     5     2     4 1   
     6     2     8 1   
     7     3     9 1   
     8     3    10 1   
     9     3    14 1   
    10     4     5 1   
    11     4    11 1   
    12     4    12 1   
    13     5     6 1   
    14     5    15 1   
    15    14    16 1   
    16    14    17 1   
    17    14    18 1   
    18    16    19 1   
    19    16    20 2   
    20    19    21 1   
    21    19    22 1   
@<TRIPOS>SUBSTRUCTURE
     1 B3Q         1 TEMP              0 ****  ****    0 ROOT
