@<TRIPOS>MOLECULE
B3R
   13    13     1     0     0
SMALL
No Charge or Current Charge


@<TRIPOS>ATOM
      1 C1          -2.1610     0.5960     0.1020 ca         1 B3R       0.142100
      2 C2          -0.7800     0.8330     0.0190 ca         1 B3R      -0.124000
      3 C3           0.1120    -0.2490    -0.0650 ca         1 B3R       0.019100
      4 C4          -2.6510    -0.7200     0.1000 ca         1 B3R      -0.197000
      5 C5          -1.7580    -1.8040     0.0160 ca         1 B3R      -0.068000
      6 C6          -0.3740    -1.5670    -0.0670 ca         1 B3R      -0.124000
      7 O7          -3.0240     1.6470     0.1830 oh         1 B3R      -0.529100
      8 Br8          1.9940     0.0740    -0.1770 br         1 B3R      -0.096100
      9 H2          -0.4030     1.8520     0.0210 ha         1 B3R       0.144000
     10 H4          -3.7200    -0.9120     0.1640 ha         1 B3R       0.117000
     11 H5          -2.1360    -2.8240     0.0150 ha         1 B3R       0.117000
     12 H6           0.3180    -2.4030    -0.1320 ha         1 B3R       0.132000
     13 HO7         -3.9390     1.2940     0.2330 ho         1 B3R       0.467000
@<TRIPOS>BOND
     1     1     2 ar  
     2     1     4 ar  
     3     1     7 1   
     4     2     3 ar  
     5     2     9 1   
     6     3     6 ar  
     7     3     8 1   
     8     4     5 ar  
     9     4    10 1   
    10     5     6 ar  
    11     5    11 1   
    12     6    12 1   
    13     7    13 1   
@<TRIPOS>SUBSTRUCTURE
     1 B3R         1 TEMP              0 ****  ****    0 ROOT
