@<TRIPOS>MOLECULE
B3R
   13    13     1     0     0
SMALL
abcg2


@<TRIPOS>ATOM
      1 C1          -2.1650     0.5720     0.1040 ca         1 B3R       0.142100
      2 C2          -0.7950     0.8190     0.0220 ca         1 B3R      -0.124000
      3 C3           0.0730    -0.2560    -0.0620 ca         1 B3R       0.019100
      4 C4          -2.6380    -0.7380     0.1010 ca         1 B3R      -0.197000
      5 C5          -1.7410    -1.7910     0.0160 ca         1 B3R      -0.068000
      6 C6          -0.3730    -1.5690    -0.0680 ca         1 B3R      -0.124000
      7 O7          -2.9780     1.6390     0.1840 oh         1 B3R      -0.529100
      8 BR8          1.9290     0.0850    -0.1750 br         1 B3R      -0.096100
      9 H2          -0.4350     1.8400     0.0240 ha         1 B3R       0.144000
     10 H4          -3.7020    -0.9350     0.1650 ha         1 B3R       0.117000
     11 H5          -2.1130    -2.8070     0.0150 ha         1 B3R       0.117000
     12 H6           0.3150    -2.4000    -0.1350 ha         1 B3R       0.132000
     13 HO7         -3.9000     1.3590     0.2210 ho         1 B3R       0.467000
@<TRIPOS>BOND
     1     1     2 ar  
     2     1     4 ar  
     3     1     7 1   
     4     2     3 ar  
     5     2     9 1   
     6     3     6 ar  
     7     3     8 1   
     8     4     5 ar  
     9     4    10 1   
    10     5     6 ar  
    11     5    11 1   
    12     6    12 1   
    13     7    13 1   
@<TRIPOS>SUBSTRUCTURE
     1 B3R         1 TEMP              0 ****  ****    0 ROOT
