@<TRIPOS>MOLECULE
B3S
   16    15     1     0     0
SMALL
No Charge or Current Charge


@<TRIPOS>ATOM
      1 N           -0.6430    -1.3880     2.3770 n8         1 B3S      -0.929800
      2 OD           0.7910    -3.5600     1.7830 oh         1 B3S      -0.627800
      3 CG           1.1950    -2.4160     1.0280 c3         1 B3S       0.142400
      4 CB           0.7030    -1.1510     1.7930 c3         1 B3S       0.128500
      5 CA           0.6690     0.1320     0.9360 c3         1 B3S      -0.232400
      6 C            2.0830     0.4650     0.4350 c          1 B3S       0.929600
      7 O            2.8170     1.1220     1.1610 o          1 B3S      -0.840800
      8 OXT          2.4380     0.0250    -0.6510 o          1 B3S      -0.840800
      9 H           -1.3400    -1.3360     1.6270 hn         1 B3S       0.328300
     10 H2          -0.8810    -0.5990     2.9870 hn         1 B3S       0.328300
     11 HD           0.0410    -3.1950     2.3140 ho         1 B3S       0.414000
     12 HG3          0.7320    -2.4430     0.0320 h1         1 B3S       0.042700
     13 HG2          2.2850    -2.3870     0.9020 h1         1 B3S       0.042700
     14 HB           1.4020    -0.9880     2.6280 h1         1 B3S       0.079700
     15 HA1         -0.0040    -0.0680     0.0930 hc         1 B3S       0.017700
     16 HA2          0.3140     0.9270     1.6050 hc         1 B3S       0.017700
@<TRIPOS>BOND
     1     1     4 1   
     2     1     9 1   
     3     1    10 1   
     4     2     3 1   
     5     2    11 1   
     6     3     4 1   
     7     3    12 1   
     8     3    13 1   
     9     4     5 1   
    10     4    14 1   
    11     5     6 1   
    12     5    15 1   
    13     5    16 1   
    14     6     7 1   
    15     6     8 1   
@<TRIPOS>SUBSTRUCTURE
     1 B3S         1 TEMP              0 ****  ****    0 ROOT
