@<TRIPOS>MOLECULE
B3S
   16    15     1     0     0
SMALL
bcc


@<TRIPOS>ATOM
      1 N           -0.6820    -1.3770     2.3200 n8         1 B3S      -0.929800
      2 OD           0.9640    -3.4880     2.0650 oh         1 B3S      -0.627800
      3 CG           1.1630    -2.4090     1.1830 c3         1 B3S       0.142400
      4 CB           0.6580    -1.1050     1.7960 c3         1 B3S       0.128500
      5 CA           0.7230     0.0490     0.8040 c3         1 B3S      -0.232400
      6 C            2.1370     0.4730     0.3640 c          1 B3S       0.929600
      7 O            3.0640     0.2920     1.1800 o          1 B3S      -0.840800
      8 OXT          2.2370     1.0020    -0.7620 o          1 B3S      -0.840800
      9 H           -1.3650    -1.3200     1.5740 hn         1 B3S       0.328300
     10 H2          -0.9440    -0.6730     2.9980 hn         1 B3S       0.328300
     11 HD           0.1230    -3.2670     2.5000 ho         1 B3S       0.414000
     12 HG3          0.6420    -2.5770     0.2260 h1         1 B3S       0.042700
     13 HG2          2.2280    -2.3300     0.9580 h1         1 B3S       0.042700
     14 HB           1.2930    -0.8660     2.6540 h1         1 B3S       0.079700
     15 HA1          0.1130    -0.1890    -0.0750 hc         1 B3S       0.017700
     16 HA2          0.2490     0.9250     1.2650 hc         1 B3S       0.017700
@<TRIPOS>BOND
     1     1     4 1   
     2     1     9 1   
     3     1    10 1   
     4     2     3 1   
     5     2    11 1   
     6     3     4 1   
     7     3    12 1   
     8     3    13 1   
     9     4     5 1   
    10     4    14 1   
    11     5     6 1   
    12     5    15 1   
    13     5    16 1   
    14     6     7 1   
    15     6     8 1   
@<TRIPOS>SUBSTRUCTURE
     1 B3S         1 TEMP              0 ****  ****    0 ROOT
