@<TRIPOS>MOLECULE
B3T
   19    18     1     0     0
SMALL
No Charge or Current Charge


@<TRIPOS>ATOM
      1 CG          -1.9090     0.3110    -0.4690 c3         1 B3T       0.169300
      2 OD1         -2.3350     1.2360     0.5290 oh         1 B3T      -0.674000
      3 CD2         -2.9600    -0.8160    -0.5640 c3         1 B3T      -0.117100
      4 CB          -0.5030    -0.2000    -0.0100 c3         1 B3T       0.146500
      5 N           -0.4900    -0.4050     1.4640 n8         1 B3T      -1.017200
      6 CA           0.6410     0.7740    -0.3800 c3         1 B3T      -0.239400
      7 C            1.9930     0.0540    -0.3130 c          1 B3T       0.709000
      8 O            2.3740    -0.5440    -1.3080 o          1 B3T      -0.741000
      9 HG          -1.8310     0.7950    -1.4530 h1         1 B3T       0.054700
     10 HOD1        -1.7560     0.9470     1.2820 ho         1 B3T       0.434000
     11 H1D2        -3.9310    -0.4120    -0.8750 hc         1 B3T       0.031033
     12 H2D2        -2.6520    -1.5630    -1.3060 hc         1 B3T       0.031033
     13 H3D2        -3.0900    -1.3240     0.3990 hc         1 B3T       0.031033
     14 HB          -0.2990    -1.1600    -0.5110 h1         1 B3T       0.066700
     15 HN          -0.8640    -1.3380     1.6760 hn         1 B3T       0.397500
     16 HA           0.4490     1.0790    -1.4160 hc         1 B3T       0.030200
     17 HAA          0.6030     1.6090     0.3310 hc         1 B3T       0.030200
     18 HNA          0.4920    -0.4680     1.7640 hn         1 B3T       0.397500
     19 OXT          2.6080     0.0700     0.7420 o          1 B3T      -0.741000
@<TRIPOS>BOND
     1     1     2 1   
     2     1     3 1   
     3     1     4 1   
     4     1     9 1   
     5     2    10 1   
     6     3    11 1   
     7     3    12 1   
     8     3    13 1   
     9     4     5 1   
    10     4     6 1   
    11     4    14 1   
    12     5    15 1   
    13     5    18 1   
    14     6     7 1   
    15     6    16 1   
    16     6    17 1   
    17     7     8 1   
    18     7    19 1   
@<TRIPOS>SUBSTRUCTURE
     1 B3T         1 TEMP              0 ****  ****    0 ROOT
