@<TRIPOS>MOLECULE
B3T
   19    18     1     0     0
SMALL
abcg2


@<TRIPOS>ATOM
      1 CG          -1.8590     0.3700    -0.3880 c3         1 B3T       0.169300
      2 OD1         -2.1720     1.2930     0.6440 oh         1 B3T      -0.674000
      3 CD2         -2.9800    -0.6400    -0.5780 c3         1 B3T      -0.117100
      4 CB          -0.5040    -0.3090    -0.1530 c3         1 B3T       0.146500
      5 N           -0.5340    -1.0520     1.1050 n8         1 B3T      -1.017200
      6 CA           0.6550     0.6770    -0.2470 c3         1 B3T      -0.239400
      7 C            2.0570     0.0440    -0.1590 c          1 B3T       0.709000
      8 O            2.1610    -1.1740    -0.4150 o          1 B3T      -0.741000
      9 HG          -1.7760     0.9740    -1.2980 h1         1 B3T       0.054700
     10 HOD1        -2.3600     0.7870     1.4410 ho         1 B3T       0.434000
     11 H1D2        -3.9370    -0.1390    -0.7330 hc         1 B3T       0.031033
     12 H2D2        -2.7910    -1.2720    -1.4460 hc         1 B3T       0.031033
     13 H3D2        -3.0660    -1.2920     0.2930 hc         1 B3T       0.031033
     14 HB          -0.3850    -1.0470    -0.9520 h1         1 B3T       0.066700
     15 HN           0.2850    -1.6460     1.1250 hn         1 B3T       0.397500
     16 HA           0.6030     1.2190    -1.2010 hc         1 B3T       0.030200
     17 HAA          0.5540     1.4430     0.5290 hc         1 B3T       0.030200
     18 HNA         -0.4060    -0.4060     1.8780 hn         1 B3T       0.397500
     19 OXT          2.9950     0.8140     0.1350 o          1 B3T      -0.741000
@<TRIPOS>BOND
     1     1     2 1   
     2     1     3 1   
     3     1     4 1   
     4     1     9 1   
     5     2    10 1   
     6     3    11 1   
     7     3    12 1   
     8     3    13 1   
     9     4     5 1   
    10     4     6 1   
    11     4    14 1   
    12     5    15 1   
    13     5    18 1   
    14     6     7 1   
    15     6    16 1   
    16     6    17 1   
    17     7     8 1   
    18     7    19 1   
@<TRIPOS>SUBSTRUCTURE
     1 B3T         1 TEMP              0 ****  ****    0 ROOT
