@<TRIPOS>MOLECULE
B3U
   21    21     1     0     0
SMALL
bcc


@<TRIPOS>ATOM
      1 N            4.9110    25.0120    31.1340 n8         1 B3U      -0.892800
      2 CA           4.9370    25.6060    29.8050 c3         1 B3U       0.014500
      3 CB           4.3960    24.6190    28.7710 c3         1 B3U       0.021900
      4 CG           2.9530    24.2780    28.9360 cc         1 B3U      -0.171900
      5 CD2          1.9190    24.8260    29.6330 cd         1 B3U       0.319200
      6 NE2          0.7460    24.1360    29.4100 nd         1 B3U      -0.731000
      7 CE1          1.0670    23.1750    28.5850 cc         1 B3U       0.573400
      8 ND1          2.3810    23.2090    28.2690 na         1 B3U      -0.343900
      9 NT           0.2260    22.1830    28.1310 nv         1 B3U      -0.910500
     10 C            4.2850    27.0110    29.6600 c          1 B3U       0.905600
     11 OXT          3.8420    27.5500    30.6940 o          1 B3U      -0.836800
     12 O            4.2950    27.4930    28.5100 o          1 B3U      -0.836800
     13 H            5.1780    25.7230    31.8030 hn         1 B3U       0.331300
     14 H2           3.9530    24.7870    31.3740 hn         1 B3U       0.331300
     15 HA           5.9930    25.7500    29.5430 h1         1 B3U       0.040700
     16 HB           4.5680    25.0330    27.7740 hc         1 B3U       0.037700
     17 HBA          4.9870    23.6990    28.8220 hc         1 B3U       0.037700
     18 HD2          1.9490    25.6890    30.2810 h4         1 B3U       0.068100
     19 HND1         2.8650    22.5640    27.6650 hn         1 B3U       0.281700
     20 HNT         -0.7470    22.4280    28.2400 hn         1 B3U       0.379300
     21 HNTA         0.4090    21.8740    27.1880 hn         1 B3U       0.379300
@<TRIPOS>BOND
     1     1     2 1   
     2     1    13 1   
     3     1    14 1   
     4     2     3 1   
     5     2    10 1   
     6     2    15 1   
     7     3     4 1   
     8     3    16 1   
     9     3    17 1   
    10     4     5 2   
    11     4     8 1   
    12     5     6 1   
    13     5    18 1   
    14     6     7 2   
    15     7     8 1   
    16     7     9 1   
    17     8    19 1   
    18     9    20 1   
    19     9    21 1   
    20    10    11 1   
    21    10    12 1   
@<TRIPOS>SUBSTRUCTURE
     1 B3U         1 TEMP              0 ****  ****    0 ROOT
