@<TRIPOS>MOLECULE
B3U
   21    21     1     0     0
SMALL
No Charge or Current Charge


@<TRIPOS>ATOM
      1 N            4.4560    25.9200    31.1460 n8         1 B3U      -0.892800
      2 CA           4.8190    25.6990    29.6900 c3         1 B3U       0.014500
      3 CB           4.6250    24.2100    29.3000 c3         1 B3U       0.021900
      4 CG           3.1900    23.7460    29.3210 cc         1 B3U      -0.171900
      5 CD2          2.4660    23.1700    30.3440 cd         1 B3U       0.319200
      6 NE2          1.1760    22.8780    29.9250 nd         1 B3U      -0.731000
      7 CE1          1.1460    23.2710    28.6860 cc         1 B3U       0.573400
      8 ND1          2.3190    23.7960    28.2520 na         1 B3U      -0.343900
      9 NT           0.0690    23.1620    27.9040 nv         1 B3U      -0.910500
     10 C            4.1530    26.6550    28.6080 c          1 B3U       0.905600
     11 OXT          3.1600    27.3070    28.9180 o          1 B3U      -0.836800
     12 O            4.7260    26.8120    27.5340 o          1 B3U      -0.836800
     13 H            4.6740    26.8900    31.3980 hn         1 B3U       0.331300
     14 H2           3.4350    25.8760    31.2310 hn         1 B3U       0.331300
     15 HA           5.8970    25.8970    29.6210 h1         1 B3U       0.040700
     16 HB           5.0480    24.0480    28.3010 hc         1 B3U       0.037700
     17 HBA          5.2180    23.5840    29.9780 hc         1 B3U       0.037700
     18 HD2          2.8040    22.9510    31.3510 h4         1 B3U       0.068100
     19 HND1         2.5010    24.1450    27.3220 hn         1 B3U       0.281700
     20 HNT         -0.8080    22.9370    28.3560 hn         1 B3U       0.379300
     21 HNTA         0.0400    23.6920    27.0420 hn         1 B3U       0.379300
@<TRIPOS>BOND
     1     1     2 1   
     2     1    13 1   
     3     1    14 1   
     4     2     3 1   
     5     2    10 1   
     6     2    15 1   
     7     3     4 1   
     8     3    16 1   
     9     3    17 1   
    10     4     5 2   
    11     4     8 1   
    12     5     6 1   
    13     5    18 1   
    14     6     7 2   
    15     7     8 1   
    16     7     9 1   
    17     8    19 1   
    18     9    20 1   
    19     9    21 1   
    20    10    11 1   
    21    10    12 1   
@<TRIPOS>SUBSTRUCTURE
     1 B3U         1 TEMP              0 ****  ****    0 ROOT
