@<TRIPOS>MOLECULE
B3V
   41    41     1     0     0
SMALL
No Charge or Current Charge


@<TRIPOS>ATOM
      1 N1           0.7960    -2.0380    -0.2850 n7         1 B3V      -0.866300
      2 O1          -1.0970    -2.3600    -1.8810 o          1 B3V      -0.530500
      3 S1          -0.8200    -2.4230    -0.4450 sy         1 B3V       1.147600
      4 C2          -3.9440     3.2780     0.1450 c3         1 B3V       0.146900
      5 N2           3.2660     0.9410    -0.4490 n3         1 B3V      -0.734600
      6 O2          -1.0020    -3.6440     0.3440 o          1 B3V      -0.530500
      7 C5          -2.8370     1.1190     1.7490 ca         1 B3V      -0.150000
      8 C6          -2.7820     1.1080     0.3370 ca         1 B3V       0.124100
      9 C7          -2.1730     0.0270    -0.3250 ca         1 B3V      -0.062000
     10 C11          2.7450    -0.4650    -0.4210 c3         1 B3V       0.168800
     11 C8          -1.6170    -1.0450     0.4080 ca         1 B3V      -0.270500
     12 C9          -1.6750    -1.0250     1.8170 ca         1 B3V      -0.055000
     13 C10         -2.2840     0.0530     2.4820 ca         1 B3V      -0.090000
     14 C13          1.1990    -0.6270    -0.4880 c3         1 B3V       0.194800
     15 C16          5.1790     0.4670     1.1900 c3         1 B3V      -0.091100
     16 C17          4.7320     1.0160    -0.1810 c3         1 B3V       0.172300
     17 C19          2.8700     1.6740    -1.6870 c3         1 B3V       0.172300
     18 C20          3.1770     3.1860    -1.6840 c3         1 B3V      -0.091100
     19 H1           1.1950    -2.6120    -1.0250 hn         1 B3V       0.476000
     20 H131         0.8390    -0.2680    -1.4620 h1         1 B3V       0.060200
     21 H132         0.7630     0.0170     0.2880 h1         1 B3V       0.060200
     22 H21C        -4.8180     2.9830     0.7390 h1         1 B3V       0.043367
     23 H22C        -3.2470     3.8270     0.7910 h1         1 B3V       0.043367
     24 H23C        -4.2840     3.9610    -0.6440 h1         1 B3V       0.043367
     25 H111         3.1900    -1.0410    -1.2440 h1         1 B3V       0.042200
     26 H112         3.0540    -0.9540     0.5110 h1         1 B3V       0.042200
     27 H171         5.2860     0.4880    -0.9690 h1         1 B3V       0.028200
     28 H172         5.0610     2.0620    -0.2060 h1         1 B3V       0.028200
     29 H191         3.3510     1.2200    -2.5640 h1         1 B3V       0.028200
     30 H192         1.7870     1.5890    -1.8380 h1         1 B3V       0.028200
     31 H5          -3.2990     1.9380     2.2910 ha         1 B3V       0.120000
     32 H10         -2.3240     0.0640     3.5690 ha         1 B3V       0.118000
     33 H7          -2.1350     0.0310    -1.4130 ha         1 B3V       0.145000
     34 H9          -1.2450    -1.8400     2.3990 ha         1 B3V       0.142000
     35 H161         5.0940    -0.6250     1.2340 hc         1 B3V       0.038700
     36 H162         6.2300     0.7230     1.3690 hc         1 B3V       0.038700
     37 H163         4.5790     0.9030     1.9970 hc         1 B3V       0.038700
     38 H201         2.7920     3.6580    -0.7720 hc         1 B3V       0.038700
     39 H202         4.2530     3.3790    -1.7550 hc         1 B3V       0.038700
     40 H203         2.6980     3.6660    -2.5450 hc         1 B3V       0.038700
     41 O06         -3.3050     2.1270    -0.4350 os         1 B3V      -0.339100
@<TRIPOS>BOND
     1     1     3 1   
     2     1    14 1   
     3     1    19 1   
     4     2     3 2   
     5     3     6 2   
     6     3    11 1   
     7     4    22 1   
     8     4    23 1   
     9     4    24 1   
    10     4    41 1   
    11     5    10 1   
    12     5    16 1   
    13     5    17 1   
    14     7     8 ar  
    15     7    13 ar  
    16     7    31 1   
    17     8     9 ar  
    18     8    41 1   
    19     9    11 ar  
    20     9    33 1   
    21    10    14 1   
    22    10    25 1   
    23    10    26 1   
    24    11    12 ar  
    25    12    13 ar  
    26    12    34 1   
    27    13    32 1   
    28    14    20 1   
    29    14    21 1   
    30    15    16 1   
    31    15    35 1   
    32    15    36 1   
    33    15    37 1   
    34    16    27 1   
    35    16    28 1   
    36    17    18 1   
    37    17    29 1   
    38    17    30 1   
    39    18    38 1   
    40    18    39 1   
    41    18    40 1   
@<TRIPOS>SUBSTRUCTURE
     1 B3V         1 TEMP              0 ****  ****    0 ROOT
