@<TRIPOS>MOLECULE
B3V
   41    41     1     0     0
SMALL
abcg2


@<TRIPOS>ATOM
      1 N1           0.7000    -1.4240    -0.7360 n7         1 B3V      -0.866300
      2 O1          -1.2640    -2.9290    -0.9000 o          1 B3V      -0.530500
      3 S1          -0.5800    -2.0810     0.0610 sy         1 B3V       1.147600
      4 C2          -5.0100     2.3460    -0.9260 c3         1 B3V       0.146900
      5 N2           3.6280     0.8120    -0.2600 n3         1 B3V      -0.734600
      6 O2          -0.0700    -2.6480     1.2980 o          1 B3V      -0.530500
      7 C5          -3.2480     1.4410     1.0680 ca         1 B3V      -0.150000
      8 C6          -3.3530     0.8240    -0.1780 ca         1 B3V       0.124100
      9 C7          -2.5450    -0.2760    -0.4700 ca         1 B3V      -0.062000
     10 C11          2.8130    -0.2280    -0.8590 c3         1 B3V       0.168800
     11 C8          -1.6540    -0.7310     0.4850 ca         1 B3V      -0.270500
     12 C9          -1.5350    -0.1300     1.7320 ca         1 B3V      -0.055000
     13 C10         -2.3460     0.9600     2.0060 ca         1 B3V      -0.090000
     14 C13          1.5460    -0.4540    -0.0440 c3         1 B3V       0.194800
     15 C16          5.6380    -0.5160     0.3400 c3         1 B3V      -0.091100
     16 C17          5.0500     0.6060    -0.5000 c3         1 B3V       0.172300
     17 C19          3.1880     2.1400    -0.6690 c3         1 B3V       0.172300
     18 C20          3.6090     3.2340     0.2990 c3         1 B3V      -0.091100
     19 H1           0.4420    -1.1390    -1.6760 hn         1 B3V       0.476000
     20 H131         1.0180     0.4900     0.1240 h1         1 B3V       0.060200
     21 H132         1.8210    -0.8570     0.9300 h1         1 B3V       0.060200
     22 H21C        -5.6980     2.1970    -0.0910 h1         1 B3V       0.043367
     23 H22C        -4.4140     3.2430    -0.7390 h1         1 B3V       0.043367
     24 H23C        -5.5880     2.4910    -1.8350 h1         1 B3V       0.043367
     25 H111         2.5540     0.0060    -1.9050 h1         1 B3V       0.042200
     26 H112         3.3690    -1.1660    -0.8850 h1         1 B3V       0.042200
     27 H171         5.2550     0.4230    -1.5680 h1         1 B3V       0.028200
     28 H172         5.5750     1.5280    -0.2480 h1         1 B3V       0.028200
     29 H191         3.5380     2.3810    -1.6860 h1         1 B3V       0.028200
     30 H192         2.0970     2.1400    -0.7210 h1         1 B3V       0.028200
     31 H5          -3.8620     2.2940     1.3240 ha         1 B3V       0.120000
     32 H10         -2.2800     1.4450     2.9700 ha         1 B3V       0.118000
     33 H7          -2.6320    -0.7540    -1.4370 ha         1 B3V       0.145000
     34 H9          -0.8410    -0.4980     2.4740 ha         1 B3V       0.142000
     35 H161         5.2180    -1.4910     0.0900 hc         1 B3V       0.038700
     36 H162         6.7150    -0.5790     0.1810 hc         1 B3V       0.038700
     37 H163         5.4600    -0.3360     1.4010 hc         1 B3V       0.038700
     38 H201         3.2430     3.0190     1.3040 hc         1 B3V       0.038700
     39 H202         4.6910     3.3560     0.3540 hc         1 B3V       0.038700
     40 H203         3.1930     4.1910    -0.0160 hc         1 B3V       0.038700
     41 O06         -4.1950     1.2110    -1.1490 os         1 B3V      -0.339100
@<TRIPOS>BOND
     1     1     3 1   
     2     1    14 1   
     3     1    19 1   
     4     2     3 2   
     5     3     6 2   
     6     3    11 1   
     7     4    22 1   
     8     4    23 1   
     9     4    24 1   
    10     4    41 1   
    11     5    10 1   
    12     5    16 1   
    13     5    17 1   
    14     7     8 ar  
    15     7    13 ar  
    16     7    31 1   
    17     8     9 ar  
    18     8    41 1   
    19     9    11 ar  
    20     9    33 1   
    21    10    14 1   
    22    10    25 1   
    23    10    26 1   
    24    11    12 ar  
    25    12    13 ar  
    26    12    34 1   
    27    13    32 1   
    28    14    20 1   
    29    14    21 1   
    30    15    16 1   
    31    15    35 1   
    32    15    36 1   
    33    15    37 1   
    34    16    27 1   
    35    16    28 1   
    36    17    18 1   
    37    17    29 1   
    38    17    30 1   
    39    18    38 1   
    40    18    39 1   
    41    18    40 1   
@<TRIPOS>SUBSTRUCTURE
     1 B3V         1 TEMP              0 ****  ****    0 ROOT
