@<TRIPOS>MOLECULE
B3W
   37    37     1     0     0
SMALL
No Charge or Current Charge


@<TRIPOS>ATOM
      1 O2          -0.7410     2.1810     2.1740 o          1 B3W      -0.530000
      2 S1          -0.5860     2.3110     0.7250 sy         1 B3W       1.153600
      3 O1          -0.8270     3.5660     0.0100 o          1 B3W      -0.530000
      4 N4           1.0040     1.9250     0.4030 n7         1 B3W      -0.867300
      5 C22          1.4200     0.5100     0.5510 c3         1 B3W       0.194800
      6 C21          2.9490     0.3440     0.3200 c3         1 B3W       0.171800
      7 N17          3.4650    -1.0630     0.2810 n3         1 B3W      -0.741600
      8 C16          4.8930    -1.1410    -0.1450 c3         1 B3W       0.175300
      9 C20          5.1920    -0.5830    -1.5520 c3         1 B3W      -0.091600
     10 C5          -1.4590     0.9810    -0.1200 ca         1 B3W      -0.312500
     11 C10         -1.5980     1.0170    -1.5230 ca         1 B3W      -0.007500
     12 C9          -2.2680    -0.0250    -2.1880 ca         1 B3W      -0.126000
     13 C8          -2.7960    -1.1000    -1.4560 ca         1 B3W       0.166000
     14 C7          -2.6590    -1.1400    -0.0600 ca         1 B3W      -0.126000
     15 C6          -1.9920    -0.1020     0.6130 ca         1 B3W      -0.007500
     16 C11          3.2020    -1.8050     1.5490 c3         1 B3W       0.175300
     17 C12          3.5010    -3.3180     1.5020 c3         1 B3W      -0.091600
     18 Cl8         -3.6320    -2.4030    -2.2930 cl         1 B3W      -0.185000
     19 H4           1.4750     2.4900     1.1080 hn         1 B3W       0.476000
     20 H221         1.1620     0.1430     1.5530 h1         1 B3W       0.060200
     21 H222         0.9020    -0.1250    -0.1810 h1         1 B3W       0.060200
     22 H211         3.1610     0.8400    -0.6350 h1         1 B3W       0.041700
     23 H212         3.4810     0.9120     1.0960 h1         1 B3W       0.041700
     24 H161         5.5320    -0.6200     0.5820 h1         1 B3W       0.028200
     25 H162         5.2200    -2.1870    -0.1620 h1         1 B3W       0.028200
     26 H111         3.7780    -1.3590     2.3720 h1         1 B3W       0.028200
     27 H112         2.1430    -1.7170     1.8170 h1         1 B3W       0.028200
     28 H201         6.2160    -0.8420    -1.8460 hc         1 B3W       0.038700
     29 H202         4.5060    -1.0120    -2.2920 hc         1 B3W       0.038700
     30 H203         5.1060     0.5090    -1.5800 hc         1 B3W       0.038700
     31 H6          -1.8900    -0.1460     1.6960 ha         1 B3W       0.140500
     32 H10         -1.1850     1.8440    -2.0990 ha         1 B3W       0.140500
     33 H7          -3.0700    -1.9760     0.5010 ha         1 B3W       0.135500
     34 H9          -2.3750    -0.0010    -3.2690 ha         1 B3W       0.135500
     35 H121         3.1160    -3.8030     2.4060 hc         1 B3W       0.038700
     36 H122         3.0170    -3.7810     0.6340 hc         1 B3W       0.038700
     37 H123         4.5780    -3.5150     1.4540 hc         1 B3W       0.038700
@<TRIPOS>BOND
     1     1     2 2   
     2     2     3 2   
     3     2     4 1   
     4     2    10 1   
     5     4     5 1   
     6     4    19 1   
     7     5     6 1   
     8     5    20 1   
     9     5    21 1   
    10     6     7 1   
    11     6    22 1   
    12     6    23 1   
    13     7     8 1   
    14     7    16 1   
    15     8     9 1   
    16     8    24 1   
    17     8    25 1   
    18     9    28 1   
    19     9    29 1   
    20     9    30 1   
    21    10    11 ar  
    22    10    15 ar  
    23    11    12 ar  
    24    11    32 1   
    25    12    13 ar  
    26    12    34 1   
    27    13    14 ar  
    28    13    18 1   
    29    14    15 ar  
    30    14    33 1   
    31    15    31 1   
    32    16    17 1   
    33    16    26 1   
    34    16    27 1   
    35    17    35 1   
    36    17    36 1   
    37    17    37 1   
@<TRIPOS>SUBSTRUCTURE
     1 B3W         1 TEMP              0 ****  ****    0 ROOT
