@<TRIPOS>MOLECULE
B3W
   37    37     1     0     0
SMALL
bcc


@<TRIPOS>ATOM
      1 O2          -0.7470     3.2860     0.8550 o          1 B3W      -0.600800
      2 S1          -0.2620     2.2590    -0.0510 sy         1 B3W       1.295200
      3 O1           0.1290     2.6050    -1.4070 o          1 B3W      -0.600800
      4 N4           1.0470     1.5840     0.6760 n7         1 B3W      -0.812100
      5 C22          1.7290     0.4670     0.0280 c3         1 B3W       0.194800
      6 C21          3.0320     0.1810     0.7640 c3         1 B3W       0.171800
      7 N17          3.6760    -0.9920     0.2070 n3         1 B3W      -0.741600
      8 C16          5.1280    -0.9150     0.2490 c3         1 B3W       0.175300
      9 C20          5.6990     0.0550    -0.7730 c3         1 B3W      -0.091600
     10 C5          -1.4960     0.9890    -0.1520 ca         1 B3W      -0.312500
     11 C10         -1.5590     0.1750    -1.2740 ca         1 B3W      -0.025500
     12 C9          -2.4920    -0.8490    -1.3240 ca         1 B3W      -0.144000
     13 C8          -3.3480    -1.0380    -0.2500 ca         1 B3W       0.074400
     14 C7          -3.2920    -0.2230     0.8720 ca         1 B3W      -0.144000
     15 C6          -2.3570     0.7970     0.9210 ca         1 B3W      -0.025500
     16 C11          3.1670    -2.2230     0.7970 c3         1 B3W       0.175300
     17 C12          3.3110    -3.4240    -0.1220 c3         1 B3W      -0.091600
     18 CL8         -4.5110    -2.3120    -0.3100 cl         1 B3W      -0.093400
     19 H4           0.8870     1.4430     1.6690 hn         1 B3W       0.420800
     20 H221         1.0990    -0.4290     0.0010 h1         1 B3W       0.060200
     21 H222         1.9610     0.7410    -1.0000 h1         1 B3W       0.060200
     22 H211         3.6800     1.0510     0.6570 h1         1 B3W       0.041700
     23 H212         2.8400     0.0720     1.8440 h1         1 B3W       0.041700
     24 H161         5.4930    -0.6570     1.2560 h1         1 B3W       0.028200
     25 H162         5.5260    -1.9070     0.0310 h1         1 B3W       0.028200
     26 H111         3.6470    -2.4300     1.7670 h1         1 B3W       0.028200
     27 H112         2.1060    -2.0860     1.0160 h1         1 B3W       0.028200
     28 H201         6.7890     0.0350    -0.7430 hc         1 B3W       0.038700
     29 H202         5.3820    -0.2170    -1.7800 hc         1 B3W       0.038700
     30 H203         5.3890     1.0850    -0.5910 hc         1 B3W       0.038700
     31 H6          -2.3180     1.4350     1.7930 ha         1 B3W       0.158500
     32 H10         -0.8980     0.3290    -2.1160 ha         1 B3W       0.158500
     33 H7          -3.9700    -0.3780     1.7000 ha         1 B3W       0.153500
     34 H9          -2.5490    -1.4880    -2.1950 ha         1 B3W       0.153500
     35 H121         2.8770    -4.3100     0.3430 hc         1 B3W       0.038700
     36 H122         2.7930    -3.2480    -1.0650 hc         1 B3W       0.038700
     37 H123         4.3530    -3.6540    -0.3470 hc         1 B3W       0.038700
@<TRIPOS>BOND
     1     1     2 2   
     2     2     3 2   
     3     2     4 1   
     4     2    10 1   
     5     4     5 1   
     6     4    19 1   
     7     5     6 1   
     8     5    20 1   
     9     5    21 1   
    10     6     7 1   
    11     6    22 1   
    12     6    23 1   
    13     7     8 1   
    14     7    16 1   
    15     8     9 1   
    16     8    24 1   
    17     8    25 1   
    18     9    28 1   
    19     9    29 1   
    20     9    30 1   
    21    10    11 ar  
    22    10    15 ar  
    23    11    12 ar  
    24    11    32 1   
    25    12    13 ar  
    26    12    34 1   
    27    13    14 ar  
    28    13    18 1   
    29    14    15 ar  
    30    14    33 1   
    31    15    31 1   
    32    16    17 1   
    33    16    26 1   
    34    16    27 1   
    35    17    35 1   
    36    17    36 1   
    37    17    37 1   
@<TRIPOS>SUBSTRUCTURE
     1 B3W         1 TEMP              0 ****  ****    0 ROOT
