@<TRIPOS>MOLECULE
B3X
   19    18     1     0     0
SMALL
bcc


@<TRIPOS>ATOM
      1 OE1         -0.8140    -2.9800    -0.2280 o          1 B3X      -0.618100
      2 CD          -0.8000    -1.7560    -0.2930 c          1 B3X       0.661100
      3 NE2         -1.9190    -1.0280    -0.4250 nt         1 B3X      -0.693000
      4 CG           0.4880    -0.9710    -0.2260 c3         1 B3X      -0.191400
      5 CB           1.3120    -1.3100     1.0250 c3         1 B3X       0.186500
      6 N            0.5940    -1.0930     2.2770 n8         1 B3X      -0.899800
      7 CA           2.6020    -0.5010     1.0420 c3         1 B3X      -0.205400
      8 C            3.5950    -0.7830    -0.0980 c          1 B3X       0.923600
      9 O            3.5580    -1.9130    -0.6260 o          1 B3X      -0.843800
     10 OXT          4.3930     0.1350    -0.3750 o          1 B3X      -0.843800
     11 HE21        -1.8970    -0.0240    -0.4530 hn         1 B3X       0.298000
     12 HE22        -2.8210    -1.4740    -0.4770 hn         1 B3X       0.298000
     13 HG3          1.0720    -1.2170    -1.1170 hc         1 B3X       0.073200
     14 HG2          0.2980     0.1070    -0.2550 hc         1 B3X       0.073200
     15 HB           1.5730    -2.3690     0.9800 h1         1 B3X       0.094700
     16 H           -0.2040    -1.7130     2.3410 hn         1 B3X       0.317300
     17 H2           0.2200    -0.1510     2.3000 hn         1 B3X       0.317300
     18 HA1          3.1180    -0.7120     1.9860 hc         1 B3X       0.027200
     19 HA2          2.3660     0.5690     1.0670 hc         1 B3X       0.027200
@<TRIPOS>BOND
     1     1     2 2   
     2     2     3 1   
     3     2     4 1   
     4     3    11 1   
     5     3    12 1   
     6     4     5 1   
     7     4    13 1   
     8     4    14 1   
     9     5     6 1   
    10     5     7 1   
    11     5    15 1   
    12     6    16 1   
    13     6    17 1   
    14     7     8 1   
    15     7    18 1   
    16     7    19 1   
    17     8     9 1   
    18     8    10 1   
@<TRIPOS>SUBSTRUCTURE
     1 B3X         1 TEMP              0 ****  ****    0 ROOT
