@<TRIPOS>MOLECULE
B3X
   19    18     1     0     0
SMALL
No Charge or Current Charge


@<TRIPOS>ATOM
      1 OE1         -0.6570    -2.7540    -1.0140 o          1 B3X      -0.618100
      2 CD          -0.7350    -1.6440    -0.5190 c          1 B3X       0.661100
      3 NE2         -1.9400    -1.1250    -0.2050 nt         1 B3X      -0.693000
      4 CG           0.4780    -0.7580    -0.2510 c3         1 B3X      -0.191400
      5 CB           1.2970    -1.2600     0.9600 c3         1 B3X       0.186500
      6 N            0.5260    -1.0470     2.1980 n8         1 B3X      -0.899800
      7 CA           2.6720    -0.5730     1.1170 c3         1 B3X      -0.205400
      8 C            3.6280    -1.0180     0.0000 c          1 B3X       0.923600
      9 O            4.2470    -2.0640     0.1480 o          1 B3X      -0.843800
     10 OXT          3.7230    -0.3270    -1.0050 o          1 B3X      -0.843800
     11 HE21        -2.0040    -0.1970     0.1890 hn         1 B3X       0.298000
     12 HE22        -2.7720    -1.6700    -0.3780 hn         1 B3X       0.298000
     13 HG3          1.1060    -0.7960    -1.1470 hc         1 B3X       0.073200
     14 HG2          0.1630     0.2760    -0.0700 hc         1 B3X       0.073200
     15 HB           1.4670    -2.3430     0.8430 h1         1 B3X       0.094700
     16 H           -0.4160    -1.4330     2.0870 hn         1 B3X       0.317300
     17 H2           0.3830    -0.0420     2.3340 hn         1 B3X       0.317300
     18 HA1          3.0660    -0.9200     2.0810 hc         1 B3X       0.027200
     19 HA2          2.5020     0.5100     1.0770 hc         1 B3X       0.027200
@<TRIPOS>BOND
     1     1     2 2   
     2     2     3 1   
     3     2     4 1   
     4     3    11 1   
     5     3    12 1   
     6     4     5 1   
     7     4    13 1   
     8     4    14 1   
     9     5     6 1   
    10     5     7 1   
    11     5    15 1   
    12     6    16 1   
    13     6    17 1   
    14     7     8 1   
    15     7    18 1   
    16     7    19 1   
    17     8     9 1   
    18     8    10 1   
@<TRIPOS>SUBSTRUCTURE
     1 B3X         1 TEMP              0 ****  ****    0 ROOT
