@<TRIPOS>MOLECULE
B3Y
   26    26     1     0     0
SMALL
No Charge or Current Charge


@<TRIPOS>ATOM
      1 O           -0.0920    -3.0540    -1.9130 o          1 B3Y      -0.847800
      2 C           -0.8380    -2.5370    -1.0920 c          1 B3Y       0.922600
      3 CA          -0.5500    -2.7620     0.4000 c3         1 B3Y      -0.242400
      4 CB           0.4490    -1.7280     0.9680 c3         1 B3Y       0.190500
      5 N            1.7840    -1.9320     0.3910 n8         1 B3Y      -0.904800
      6 CG           0.0130    -0.2410     0.8570 c3         1 B3Y      -0.023100
      7 CD          -1.2080     0.0960     1.7120 ca         1 B3Y      -0.082300
      8 CE2         -2.4330     0.4440     1.1070 ca         1 B3Y      -0.083000
      9 CF2         -3.5520     0.7590     1.9000 ca         1 B3Y      -0.198000
     10 CZ          -3.4520     0.7290     3.2990 ca         1 B3Y       0.109100
     11 OH          -4.5320     1.0330     4.0690 oh         1 B3Y      -0.513100
     12 CF1         -2.2360     0.3880     3.9080 ca         1 B3Y      -0.198000
     13 CE1         -1.1150     0.0730     3.1180 ca         1 B3Y      -0.083000
     14 OXT         -1.8030    -1.8560    -1.4120 o          1 B3Y      -0.847800
     15 HA1         -0.0760    -3.7400     0.5470 hc         1 B3Y       0.026200
     16 HA2         -1.4710    -2.6430     0.9840 hc         1 B3Y       0.026200
     17 HB           0.5640    -1.9420     2.0390 h1         1 B3Y       0.006700
     18 H            1.6770    -2.0770    -0.6190 hn         1 B3Y       0.345800
     19 H2           2.1500    -2.8290     0.7240 hn         1 B3Y       0.345800
     20 HG2          0.8480     0.3920     1.1820 hc         1 B3Y       0.054700
     21 HG3         -0.1600     0.0200    -0.1930 hc         1 B3Y       0.054700
     22 HE2         -2.5190     0.4680     0.0220 ha         1 B3Y       0.140000
     23 HF2         -4.4920     1.0230     1.4200 ha         1 B3Y       0.124000
     24 HOH         -5.2830     1.2430     3.4770 ho         1 B3Y       0.414000
     25 HF1         -2.1590     0.3680     4.9920 ha         1 B3Y       0.124000
     26 HE1         -0.1740    -0.1870     3.6000 ha         1 B3Y       0.140000
@<TRIPOS>BOND
     1     1     2 1   
     2     2     3 1   
     3     2    14 1   
     4     3     4 1   
     5     3    15 1   
     6     3    16 1   
     7     4     5 1   
     8     4     6 1   
     9     4    17 1   
    10     5    18 1   
    11     5    19 1   
    12     6     7 1   
    13     6    20 1   
    14     6    21 1   
    15     7     8 ar  
    16     7    13 ar  
    17     8     9 ar  
    18     8    22 1   
    19     9    10 ar  
    20     9    23 1   
    21    10    11 1   
    22    10    12 ar  
    23    11    24 1   
    24    12    13 ar  
    25    12    25 1   
    26    13    26 1   
@<TRIPOS>SUBSTRUCTURE
     1 B3Y         1 TEMP              0 ****  ****    0 ROOT
