@<TRIPOS>MOLECULE
B3Y
   26    26     1     0     0
SMALL
bcc


@<TRIPOS>ATOM
      1 O           -0.3160    -1.9690    -1.7650 o          1 B3Y      -0.847800
      2 C           -1.1430    -2.3940    -0.9240 c          1 B3Y       0.922600
      3 CA          -0.6470    -2.6430     0.5120 c3         1 B3Y      -0.242400
      4 CB           0.5100    -1.7690     1.0060 c3         1 B3Y       0.190500
      5 N            1.7780    -1.9830     0.3140 n8         1 B3Y      -0.904800
      6 CG           0.1720    -0.2720     0.9570 c3         1 B3Y      -0.023100
      7 CD          -1.0740     0.0850     1.7160 ca         1 B3Y      -0.082300
      8 CE2         -2.2680     0.3730     1.0640 ca         1 B3Y      -0.083000
      9 CF2         -3.4280     0.6770     1.7650 ca         1 B3Y      -0.198000
     10 CZ          -3.4160     0.6920     3.1560 ca         1 B3Y       0.109100
     11 OH          -4.5110     0.9770     3.8950 oh         1 B3Y      -0.513100
     12 CF1         -2.2290     0.4070     3.8290 ca         1 B3Y      -0.198000
     13 CE1         -1.0820     0.1110     3.1100 ca         1 B3Y      -0.083000
     14 OXT         -2.3350    -2.6710    -1.1590 o          1 B3Y      -0.847800
     15 HA1         -0.3270    -3.6920     0.5740 hc         1 B3Y       0.026200
     16 HA2         -1.4930    -2.5570     1.1990 hc         1 B3Y       0.026200
     17 HB           0.6760    -2.0250     2.0590 h1         1 B3Y       0.006700
     18 H            1.5690    -1.9550    -0.6790 hn         1 B3Y       0.345800
     19 H2           2.0940    -2.9290     0.4960 hn         1 B3Y       0.345800
     20 HG2          1.0260     0.2800     1.3600 hc         1 B3Y       0.054700
     21 HG3          0.0640     0.0330    -0.0870 hc         1 B3Y       0.054700
     22 HE2         -2.3000     0.3630    -0.0190 ha         1 B3Y       0.140000
     23 HF2         -4.3410     0.9020     1.2240 ha         1 B3Y       0.124000
     24 HOH         -5.2620     1.1540     3.3180 ho         1 B3Y       0.414000
     25 HF1         -2.2090     0.4210     4.9120 ha         1 B3Y       0.124000
     26 HE1         -0.1690    -0.1070     3.6540 ha         1 B3Y       0.140000
@<TRIPOS>BOND
     1     1     2 1   
     2     2     3 1   
     3     2    14 1   
     4     3     4 1   
     5     3    15 1   
     6     3    16 1   
     7     4     5 1   
     8     4     6 1   
     9     4    17 1   
    10     5    18 1   
    11     5    19 1   
    12     6     7 1   
    13     6    20 1   
    14     6    21 1   
    15     7     8 ar  
    16     7    13 ar  
    17     8     9 ar  
    18     8    22 1   
    19     9    10 ar  
    20     9    23 1   
    21    10    11 1   
    22    10    12 ar  
    23    11    24 1   
    24    12    13 ar  
    25    12    25 1   
    26    13    26 1   
@<TRIPOS>SUBSTRUCTURE
     1 B3Y         1 TEMP              0 ****  ****    0 ROOT
