@<TRIPOS>MOLECULE
B3Z
   37    37     1     0     0
SMALL
bcc


@<TRIPOS>ATOM
      1 O1           2.1760    -2.5470     0.0440 o          1 B3Z      -0.598300
      2 S1           1.4460    -1.4260    -0.5230 sy         1 B3Z       1.305200
      3 O2           1.2580    -1.3380    -1.9580 o          1 B3Z      -0.598300
      4 N4          -0.0350    -1.4580     0.1770 n7         1 B3Z      -0.819100
      5 C22         -1.0330    -0.4370    -0.1290 c3         1 B3Z       0.199800
      6 C21         -2.3940    -0.9120     0.3650 c3         1 B3Z       0.169800
      7 N17         -3.4090     0.0920     0.1150 n3         1 B3Z      -0.740600
      8 C16         -3.9160     0.0240    -1.2490 c3         1 B3Z       0.172800
      9 C20         -4.4700     1.3510    -1.7420 c3         1 B3Z      -0.089600
     10 C5           2.2660     0.0550     0.0290 ca         1 B3Z      -0.353500
     11 C6           3.1680    -0.0310     1.0870 ca         1 B3Z      -0.011000
     12 C7           3.8200     1.1040     1.5400 ca         1 B3Z      -0.167000
     13 C8           3.5770     2.3310     0.9360 ca         1 B3Z      -0.048000
     14 C9           2.6820     2.4310    -0.1180 ca         1 B3Z      -0.194000
     15 C10          2.0370     1.2930    -0.5580 ca         1 B3Z       0.233900
     16 C11         -4.4760     0.0660     1.1050 c3         1 B3Z       0.172800
     17 F09          1.1690     1.4060    -1.5650 f          1 B3Z      -0.119900
     18 C12         -4.0590     0.6540     2.4430 c3         1 B3Z      -0.089600
     19 H4           0.0330    -1.6760     1.1670 hn         1 B3Z       0.422800
     20 H221        -0.7960     0.5210     0.3430 h1         1 B3Z       0.062200
     21 H222        -1.0550    -0.2890    -1.2080 h1         1 B3Z       0.062200
     22 H211        -2.6380    -1.8810    -0.0950 h1         1 B3Z       0.041200
     23 H212        -2.3220    -1.0920     1.4400 h1         1 B3Z       0.041200
     24 H161        -3.0930    -0.2660    -1.9060 h1         1 B3Z       0.031950
     25 H162        -4.6770    -0.7650    -1.3570 h1         1 B3Z       0.031950
     26 H111        -5.3100     0.6560     0.7220 h1         1 B3Z       0.031950
     27 H112        -4.8680    -0.9550     1.2470 h1         1 B3Z       0.031950
     28 H201        -4.8010     1.2600    -2.7770 hc         1 B3Z       0.036867
     29 H202        -5.3260     1.6880    -1.1570 hc         1 B3Z       0.036867
     30 H203        -3.7060     2.1270    -1.6970 hc         1 B3Z       0.036867
     31 H6           3.3640    -0.9860     1.5540 ha         1 B3Z       0.160000
     32 H7           4.5190     1.0280     2.3600 ha         1 B3Z       0.143000
     33 H8           4.0880     3.2180     1.2830 ha         1 B3Z       0.140000
     34 H9           2.4840     3.3800    -0.5990 ha         1 B3Z       0.156000
     35 H121        -3.2480     0.0940     2.9110 hc         1 B3Z       0.036867
     36 H122        -3.7280     1.6850     2.3230 hc         1 B3Z       0.036867
     37 H123        -4.9000     0.6440     3.1360 hc         1 B3Z       0.036867
@<TRIPOS>BOND
     1     1     2 2   
     2     2     3 2   
     3     2     4 1   
     4     2    10 1   
     5     4     5 1   
     6     4    19 1   
     7     5     6 1   
     8     5    20 1   
     9     5    21 1   
    10     6     7 1   
    11     6    22 1   
    12     6    23 1   
    13     7     8 1   
    14     7    16 1   
    15     8     9 1   
    16     8    24 1   
    17     8    25 1   
    18     9    28 1   
    19     9    29 1   
    20     9    30 1   
    21    10    11 ar  
    22    10    15 ar  
    23    11    12 ar  
    24    11    31 1   
    25    12    13 ar  
    26    12    32 1   
    27    13    14 ar  
    28    13    33 1   
    29    14    15 ar  
    30    14    34 1   
    31    15    17 1   
    32    16    18 1   
    33    16    26 1   
    34    16    27 1   
    35    18    35 1   
    36    18    36 1   
    37    18    37 1   
@<TRIPOS>SUBSTRUCTURE
     1 B3Z         1 TEMP              0 ****  ****    0 ROOT
