@<TRIPOS>MOLECULE
B3Z
   37    37     1     0     0
SMALL
No Charge or Current Charge


@<TRIPOS>ATOM
      1 O1           1.5350    -1.3040    -1.5570 o          1 B3Z      -0.527500
      2 S1           1.3850     0.0730    -1.0810 sy         1 B3Z       1.163600
      3 O2           1.1830     1.2050    -1.9860 o          1 B3Z      -0.527500
      4 N4           0.0720     0.0690    -0.0560 n7         1 B3Z      -0.874300
      5 C22         -1.2670     0.0320    -0.6820 c3         1 B3Z       0.199800
      6 C21         -2.3920     0.0390     0.3930 c3         1 B3Z       0.169800
      7 N17         -3.7950     0.1770    -0.1170 n3         1 B3Z      -0.740600
      8 C16         -4.1780    -0.9290    -1.0420 c3         1 B3Z       0.172800
      9 C20         -5.5210    -0.7370    -1.7790 c3         1 B3Z      -0.089600
     10 C5           2.6870     0.4380     0.0920 ca         1 B3Z      -0.353500
     11 C6           3.5790    -0.5800     0.4940 ca         1 B3Z       0.007000
     12 C7           4.6070    -0.2930     1.4090 ca         1 B3Z      -0.149000
     13 C8           4.7510     1.0030     1.9300 ca         1 B3Z      -0.030000
     14 C9           3.8590     2.0130     1.5360 ca         1 B3Z      -0.176000
     15 C10          2.8310     1.7330     0.6220 ca         1 B3Z       0.269000
     16 C11         -4.7880     0.3790     0.9790 c3         1 B3Z       0.172800
     17 F09          1.9750     2.7250     0.2890 f          1 B3Z      -0.155000
     18 C12         -4.5690     1.6380     1.8440 c3         1 B3Z      -0.089600
     19 H4           0.1980     0.9530     0.4320 hn         1 B3Z       0.478000
     20 H221        -1.4140     0.8990    -1.3420 h1         1 B3Z       0.062200
     21 H222        -1.3650    -0.8730    -1.2950 h1         1 B3Z       0.062200
     22 H211        -2.3020    -0.8800     0.9900 h1         1 B3Z       0.041200
     23 H212        -2.1610     0.8740     1.0640 h1         1 B3Z       0.041200
     24 H161        -3.4190    -1.0370    -1.8260 h1         1 B3Z       0.031950
     25 H162        -4.2110    -1.8830    -0.4970 h1         1 B3Z       0.031950
     26 H111        -5.7950     0.4780     0.5560 h1         1 B3Z       0.031950
     27 H112        -4.8060    -0.5000     1.6380 h1         1 B3Z       0.031950
     28 H201        -5.6320    -1.5010    -2.5570 hc         1 B3Z       0.036867
     29 H202        -6.3720    -0.8350    -1.0960 hc         1 B3Z       0.036867
     30 H203        -5.5620     0.2480    -2.2590 hc         1 B3Z       0.036867
     31 H6           3.4850    -1.5930     0.1040 ha         1 B3Z       0.142000
     32 H7           5.2940    -1.0790     1.7150 ha         1 B3Z       0.125000
     33 H8           5.5470     1.2210     2.6390 ha         1 B3Z       0.122000
     34 H9           3.9590     3.0160     1.9420 ha         1 B3Z       0.138000
     35 H121        -3.6860     1.5390     2.4850 hc         1 B3Z       0.036867
     36 H122        -4.4510     2.5260     1.2120 hc         1 B3Z       0.036867
     37 H123        -5.4350     1.7970     2.4970 hc         1 B3Z       0.036867
@<TRIPOS>BOND
     1     1     2 2   
     2     2     3 2   
     3     2     4 1   
     4     2    10 1   
     5     4     5 1   
     6     4    19 1   
     7     5     6 1   
     8     5    20 1   
     9     5    21 1   
    10     6     7 1   
    11     6    22 1   
    12     6    23 1   
    13     7     8 1   
    14     7    16 1   
    15     8     9 1   
    16     8    24 1   
    17     8    25 1   
    18     9    28 1   
    19     9    29 1   
    20     9    30 1   
    21    10    11 ar  
    22    10    15 ar  
    23    11    12 ar  
    24    11    31 1   
    25    12    13 ar  
    26    12    32 1   
    27    13    14 ar  
    28    13    33 1   
    29    14    15 ar  
    30    14    34 1   
    31    15    17 1   
    32    16    18 1   
    33    16    26 1   
    34    16    27 1   
    35    18    35 1   
    36    18    36 1   
    37    18    37 1   
@<TRIPOS>SUBSTRUCTURE
     1 B3Z         1 TEMP              0 ****  ****    0 ROOT
