@<TRIPOS>MOLECULE
B40
   26    26     1     0     0
SMALL
abcg2


@<TRIPOS>ATOM
      1 N           -1.8630    -1.0210     0.0580 n7         1 B40      -0.864400
      2 CA          -1.8100     0.4100    -0.1780 c3         1 B40       0.175500
      3 C           -3.1390     1.1370     0.0380 c3         1 B40      -0.129100
      4 CB          -0.7210     1.0340     0.7050 c3         1 B40      -0.024100
      5 CG           0.6570     0.5270     0.3910 ca         1 B40      -0.065300
      6 CD1          1.4270     1.1430    -0.5940 ca         1 B40      -0.098500
      7 CD2          1.1870    -0.5810     1.0470 ca         1 B40      -0.098500
      8 CE1          2.6920     0.6670    -0.9150 ca         1 B40      -0.112500
      9 CE2          2.4530    -1.0590     0.7350 ca         1 B40      -0.112500
     10 CZ           3.2100    -0.4370    -0.2510 ca         1 B40      -0.113000
     11 CM          -2.6520    -1.7700    -0.8950 c3         1 B40       0.152100
     12 HN          -2.2040    -1.1940     0.9960 hn         1 B40       0.406000
     13 HA          -1.5120     0.5490    -1.2240 h1         1 B40       0.060700
     14 H           -3.0550     2.1940    -0.2190 hc         1 B40       0.036700
     15 HB          -3.9370     0.7150    -0.5750 hc         1 B40       0.036700
     16 HC          -3.4520     1.0710     1.0830 hc         1 B40       0.036700
     17 HBA         -0.7520     2.1190     0.5790 hc         1 B40       0.045200
     18 HBB         -0.9640     0.8360     1.7550 hc         1 B40       0.045200
     19 HD1          1.0350     2.0090    -1.1140 ha         1 B40       0.107500
     20 HD2          0.6040    -1.0710     1.8170 ha         1 B40       0.107500
     21 HE1          3.2760     1.1610    -1.6820 ha         1 B40       0.108500
     22 HE2          2.8490    -1.9190     1.2610 ha         1 B40       0.108500
     23 HZ           4.1970    -0.8070    -0.4950 ha         1 B40       0.109000
     24 HM          -3.7050    -1.4700    -0.9760 h1         1 B40       0.027367
     25 HMA         -2.2120    -1.6810    -1.8910 h1         1 B40       0.027367
     26 HMB         -2.6360    -2.8280    -0.6280 h1         1 B40       0.027367
@<TRIPOS>BOND
     1     1     2 1   
     2     1    11 1   
     3     1    12 1   
     4     2     3 1   
     5     2     4 1   
     6     2    13 1   
     7     3    14 1   
     8     3    15 1   
     9     3    16 1   
    10     4     5 1   
    11     4    17 1   
    12     4    18 1   
    13     5     6 ar  
    14     5     7 ar  
    15     6     8 ar  
    16     6    19 1   
    17     7     9 ar  
    18     7    20 1   
    19     8    10 ar  
    20     8    21 1   
    21     9    10 ar  
    22     9    22 1   
    23    10    23 1   
    24    11    24 1   
    25    11    25 1   
    26    11    26 1   
@<TRIPOS>SUBSTRUCTURE
     1 B40         1 TEMP              0 ****  ****    0 ROOT
