@<TRIPOS>MOLECULE
B40
   26    26     1     0     0
SMALL
No Charge or Current Charge


@<TRIPOS>ATOM
      1 N           -1.9650    -1.0160    -0.0050 n7         1 B40      -0.864400
      2 CA          -1.8190     0.4490    -0.1650 c3         1 B40       0.175500
      3 C           -3.1730     1.1440     0.1060 c3         1 B40      -0.129100
      4 CB          -0.7090     0.9770     0.7820 c3         1 B40      -0.024100
      5 CG           0.6880     0.4750     0.4240 ca         1 B40      -0.065300
      6 CD1          1.3480     0.9730    -0.7180 ca         1 B40      -0.098500
      7 CD2          1.3370    -0.4780     1.2350 ca         1 B40      -0.098500
      8 CE1          2.6380     0.5210    -1.0470 ca         1 B40      -0.112500
      9 CE2          2.6270    -0.9300     0.9060 ca         1 B40      -0.112500
     10 CZ           3.2780    -0.4310    -0.2360 ca         1 B40      -0.113000
     11 CM          -2.7000    -1.7320    -1.0690 c3         1 B40       0.152100
     12 HN          -2.4180    -1.2030     0.8970 hn         1 B40       0.406000
     13 HA          -1.5150     0.6880    -1.1940 h1         1 B40       0.060700
     14 H           -3.0660     2.2320     0.0210 hc         1 B40       0.036700
     15 HB          -3.9330     0.8320    -0.6190 hc         1 B40       0.036700
     16 HC          -3.5390     0.9160     1.1140 hc         1 B40       0.036700
     17 HBA         -0.7090     2.0730     0.7440 hc         1 B40       0.045200
     18 HBB         -0.9600     0.7150     1.8180 hc         1 B40       0.045200
     19 HD1          0.8610     1.7120    -1.3500 ha         1 B40       0.107500
     20 HD2          0.8410    -0.8710     2.1190 ha         1 B40       0.107500
     21 HE1          3.1410     0.9090    -1.9300 ha         1 B40       0.108500
     22 HE2          3.1220    -1.6660     1.5350 ha         1 B40       0.108500
     23 HZ           4.2760    -0.7810    -0.4900 ha         1 B40       0.109000
     24 HM          -3.7510    -1.4170    -1.1100 h1         1 B40       0.027367
     25 HMA         -2.2450    -1.5450    -2.0510 h1         1 B40       0.027367
     26 HMB         -2.6800    -2.8140    -0.8860 h1         1 B40       0.027367
@<TRIPOS>BOND
     1     1     2 1   
     2     1    11 1   
     3     1    12 1   
     4     2     3 1   
     5     2     4 1   
     6     2    13 1   
     7     3    14 1   
     8     3    15 1   
     9     3    16 1   
    10     4     5 1   
    11     4    17 1   
    12     4    18 1   
    13     5     6 ar  
    14     5     7 ar  
    15     6     8 ar  
    16     6    19 1   
    17     7     9 ar  
    18     7    20 1   
    19     8    10 ar  
    20     8    21 1   
    21     9    10 ar  
    22     9    22 1   
    23    10    23 1   
    24    11    24 1   
    25    11    25 1   
    26    11    26 1   
@<TRIPOS>SUBSTRUCTURE
     1 B40         1 TEMP              0 ****  ****    0 ROOT
