@<TRIPOS>MOLECULE
B41
   29    30     1     0     0
SMALL
abcg2


@<TRIPOS>ATOM
      1 O1          -2.5690    -1.3180    -0.6830 os         1 B41      -0.346100
      2 O2          -3.5050     0.3370     0.5820 os         1 B41      -0.346100
      3 N            2.5530    -1.2010     0.1700 n7         1 B41      -0.865400
      4 CA           2.8290     0.2230     0.1270 c3         1 B41       0.174500
      5 C            4.2790     0.5750    -0.2150 c3         1 B41      -0.129100
      6 CB           1.8790     0.9040    -0.8670 c3         1 B41      -0.022100
      7 CG           0.4320     0.8050    -0.4780 ca         1 B41      -0.064300
      8 CD1         -0.3330    -0.3080    -0.8620 ca         1 B41      -0.070000
      9 CD2         -0.1510     1.8070     0.2900 ca         1 B41      -0.114000
     10 CE1         -1.6430    -0.3490    -0.4570 ca         1 B41       0.048100
     11 CE2         -1.4890     1.7530     0.7030 ca         1 B41      -0.097000
     12 CZ          -2.2120     0.6540     0.3100 ca         1 B41       0.048100
     13 CT          -3.8070    -0.7880    -0.2310 c5         1 B41       0.373600
     14 HN           2.8220    -1.6240    -0.7110 hn         1 B41       0.407000
     15 HA           2.6050     0.6180     1.1240 h1         1 B41       0.061700
     16 H            4.5300     0.2370    -1.2230 hc         1 B41       0.037367
     17 HB           4.4410     1.6530    -0.1750 hc         1 B41       0.037367
     18 HC           4.9830     0.1130     0.4780 hc         1 B41       0.037367
     19 HBA          2.1620     1.9560    -0.9490 hc         1 B41       0.046200
     20 HBB          2.0380     0.4680    -1.8590 hc         1 B41       0.046200
     21 HD1          0.0980    -1.1020    -1.4580 ha         1 B41       0.134000
     22 HD2          0.4440     2.6650     0.5780 ha         1 B41       0.113000
     23 HE2         -1.9260     2.5420     1.2990 ha         1 B41       0.131000
     24 HM           2.8030    -1.5270     2.2140 h1         1 B41       0.028367
     25 HMA          2.9160    -2.9670     1.2120 h1         1 B41       0.028367
     26 HMB          4.2760    -1.8490     1.3000 h1         1 B41       0.028367
     27 HT          -4.4130    -0.4740    -1.0890 h2         1 B41       0.061200
     28 HTA         -4.3370    -1.5370     0.3560 h2         1 B41       0.061200
     29 CM           3.1810    -1.9100     1.2640 c3         1 B41       0.152100
@<TRIPOS>BOND
     1     1    10 1   
     2     1    13 1   
     3     2    12 1   
     4     2    13 1   
     5     3     4 1   
     6     3    14 1   
     7     3    29 1   
     8     4     5 1   
     9     4     6 1   
    10     4    15 1   
    11     5    16 1   
    12     5    17 1   
    13     5    18 1   
    14     6     7 1   
    15     6    19 1   
    16     6    20 1   
    17     7     8 ar  
    18     7     9 ar  
    19     8    10 ar  
    20     8    21 1   
    21     9    11 ar  
    22     9    22 1   
    23    10    12 ar  
    24    11    12 ar  
    25    11    23 1   
    26    13    27 1   
    27    13    28 1   
    28    24    29 1   
    29    25    29 1   
    30    26    29 1   
@<TRIPOS>SUBSTRUCTURE
     1 B41         1 TEMP              0 ****  ****    0 ROOT
