@<TRIPOS>MOLECULE
B41
   29    30     1     0     0
SMALL
No Charge or Current Charge


@<TRIPOS>ATOM
      1 O1          -2.7130    -1.1270    -1.0730 os         1 B41      -0.346100
      2 O2          -3.5770     0.4370     0.5330 os         1 B41      -0.346100
      3 N            2.6470    -1.1960     0.2210 n7         1 B41      -0.865400
      4 CA           2.8580     0.2640     0.1070 c3         1 B41       0.174500
      5 C            4.3290     0.5550    -0.2620 c3         1 B41      -0.129100
      6 CB           1.8790     0.8600    -0.9380 c3         1 B41      -0.022100
      7 CG           0.4160     0.7750    -0.5110 ca         1 B41      -0.064300
      8 CD1         -0.4320    -0.2150    -1.0610 ca         1 B41      -0.070000
      9 CD2         -0.1020     1.6960     0.4360 ca         1 B41      -0.114000
     10 CE1         -1.7680    -0.2530    -0.6410 ca         1 B41       0.048100
     11 CE2         -1.4540     1.6320     0.8350 ca         1 B41      -0.097000
     12 CZ          -2.2600     0.6360     0.2720 ca         1 B41       0.048100
     13 CT          -3.8890    -0.7580    -0.2690 c5         1 B41       0.373600
     14 HN           3.0290    -1.6470    -0.6190 hn         1 B41       0.407000
     15 HA           2.6460     0.7530     1.0700 h1         1 B41       0.061700
     16 H            4.6030     0.0690    -1.2070 hc         1 B41       0.037367
     17 HB           4.4880     1.6340    -0.3770 hc         1 B41       0.037367
     18 HC           5.0130     0.2050     0.5200 hc         1 B41       0.037367
     19 HBA          2.1390     1.9130    -1.1040 hc         1 B41       0.046200
     20 HBB          2.0280     0.3610    -1.9030 hc         1 B41       0.046200
     21 HD1         -0.0630    -0.9330    -1.7880 ha         1 B41       0.134000
     22 HD2          0.5450     2.4600     0.8600 ha         1 B41       0.113000
     23 HE2         -1.8610     2.3350     1.5580 ha         1 B41       0.131000
     24 HM           2.8220    -1.3940     2.3360 h1         1 B41       0.028367
     25 HMA          2.9280    -2.9200     1.4330 h1         1 B41       0.028367
     26 HMB          4.3020    -1.7970     1.4320 h1         1 B41       0.028367
     27 HT          -4.7370    -0.5460    -0.9310 h2         1 B41       0.061200
     28 HTA         -4.1360    -1.5860     0.4060 h2         1 B41       0.061200
     29 CM           3.2060    -1.8580     1.4170 c3         1 B41       0.152100
@<TRIPOS>BOND
     1     1    10 1   
     2     1    13 1   
     3     2    12 1   
     4     2    13 1   
     5     3     4 1   
     6     3    14 1   
     7     3    29 1   
     8     4     5 1   
     9     4     6 1   
    10     4    15 1   
    11     5    16 1   
    12     5    17 1   
    13     5    18 1   
    14     6     7 1   
    15     6    19 1   
    16     6    20 1   
    17     7     8 ar  
    18     7     9 ar  
    19     8    10 ar  
    20     8    21 1   
    21     9    11 ar  
    22     9    22 1   
    23    10    12 ar  
    24    11    12 ar  
    25    11    23 1   
    26    13    27 1   
    27    13    28 1   
    28    24    29 1   
    29    25    29 1   
    30    26    29 1   
@<TRIPOS>SUBSTRUCTURE
     1 B41         1 TEMP              0 ****  ****    0 ROOT
