@<TRIPOS>MOLECULE
B42
   70    73     1     0     0
SMALL
bcc


@<TRIPOS>ATOM
      1 O33          6.6240     2.5160    -0.6020 o          1 B42      -0.596300
      2 S36          7.1450     1.2110    -0.2340 s6         1 B42       1.217900
      3 O32          8.5050     0.8480    -0.5880 o          1 B42      -0.596300
      4 C21          6.9210     0.9930     1.5150 c3         1 B42      -0.270300
      5 N28          6.1750     0.0680    -0.9670 nu         1 B42      -0.677500
      6 C5           4.7720     0.1300    -0.8020 ca         1 B42       0.060600
      7 C2           4.0280     1.1080    -1.4670 ca         1 B42      -0.029000
      8 C3           4.1190    -0.8040    -0.0170 ca         1 B42      -0.027000
      9 C6           2.7360    -0.7640     0.0870 ca         1 B42      -0.330500
     10 S35          1.8830    -2.0310     0.9460 sy         1 B42       1.393700
     11 O30          1.6870    -3.1540     0.0410 o          1 B42      -0.610800
     12 O31          2.5540    -2.3090     2.2050 o          1 B42      -0.610800
     13 N26          0.4490    -1.3400     1.2680 ne         1 B42      -0.937300
     14 C9          -0.0770    -0.3810     0.5310 cf         1 B42       0.891500
     15 N25          0.6230     0.3080    -0.3790 nu         1 B42      -0.724600
     16 C4           1.9900     0.2270    -0.5420 ca         1 B42       0.229600
     17 C1           2.6590     1.1690    -1.3260 ca         1 B42      -0.163000
     18 C7          -1.4770    -0.0480     0.7480 cf         1 B42      -0.506800
     19 C10         -2.0850     1.1020     0.0430 c          1 B42       0.756700
     20 O29         -1.4840     1.6730    -0.8790 o          1 B42      -0.695500
     21 N27         -3.3070     1.4960     0.4370 n          1 B42      -0.448800
     22 C16         -3.9630     2.6400    -0.1880 c5         1 B42       0.101700
     23 C14         -4.0510     3.8690     0.7380 c5         1 B42      -0.095900
     24 C12         -5.3580     4.5470     0.3400 c5         1 B42      -0.081400
     25 C13         -5.4200     2.3520    -0.6380 c5         1 B42      -0.095900
     26 C11         -6.2950     3.3630     0.1070 c5         1 B42      -0.081400
     27 C15         -3.9000     0.9340     1.6320 c6         1 B42       0.097000
     28 C17         -3.7240    -0.5780     1.7140 c6         1 B42      -0.050800
     29 C18         -4.2570    -1.0390     3.0700 c3         1 B42      -0.082100
     30 C8          -2.2520    -0.8430     1.5720 c2         1 B42       0.317900
     31 O34         -1.8010    -1.8640     2.2330 oh         1 B42      -0.470100
     32 C22         -4.4950    -1.2610     0.5590 c3         1 B42      -0.065400
     33 C23         -4.3090    -2.7670     0.4170 c3         1 B42      -0.075400
     34 C24         -5.1320    -3.3730    -0.7230 c3         1 B42      -0.060700
     35 C20         -4.7690    -4.8430    -0.9050 c3         1 B42      -0.089100
     36 C19         -6.6350    -3.2210    -0.5040 c3         1 B42      -0.089100
     37 H21          5.8770     1.1570     1.7710 h1         1 B42       0.105367
     38 H21A         7.2300    -0.0110     1.7940 h1         1 B42       0.105367
     39 H21B         7.5420     1.7300     2.0230 h1         1 B42       0.105367
     40 HN28         6.5690    -0.8640    -0.8840 hn         1 B42       0.436800
     41 H2           4.5270     1.8230    -2.1060 ha         1 B42       0.169000
     42 H3           4.6820    -1.5720     0.4990 ha         1 B42       0.151000
     43 HN25         0.0700     1.0270    -0.8670 hn         1 B42       0.521800
     44 H1           2.0970     1.9450    -1.8290 ha         1 B42       0.154000
     45 H16         -3.3700     2.8950    -1.0620 h1         1 B42       0.093700
     46 H14         -4.1130     3.5580     1.7840 hc         1 B42       0.051950
     47 H14A        -3.1750     4.5120     0.6460 hc         1 B42       0.051950
     48 H12         -5.7220     5.2410     1.0980 hc         1 B42       0.047700
     49 H12A        -5.2310     5.1130    -0.5870 hc         1 B42       0.047700
     50 H13         -5.4960     2.5090    -1.7150 hc         1 B42       0.051950
     51 H13A        -5.7210     1.3180    -0.4590 hc         1 B42       0.051950
     52 H11         -6.6090     2.9550     1.0720 hc         1 B42       0.047700
     53 H11A        -7.1990     3.6270    -0.4420 hc         1 B42       0.047700
     54 H15         -3.4740     1.4040     2.5270 h1         1 B42       0.060700
     55 H15A        -4.9660     1.1610     1.6370 h1         1 B42       0.060700
     56 H18         -5.3130    -0.7760     3.1450 hc         1 B42       0.050700
     57 H18A        -4.1770    -2.1150     3.2070 hc         1 B42       0.050700
     58 H18B        -3.7340    -0.5530     3.8940 hc         1 B42       0.050700
     59 HO34        -0.8140    -1.9450     2.0560 ho         1 B42       0.524000
     60 H22         -5.5500    -1.0300     0.7330 hc         1 B42       0.053200
     61 H22A        -4.2290    -0.7870    -0.3890 hc         1 B42       0.053200
     62 H23         -3.2560    -2.9940     0.2290 hc         1 B42       0.047700
     63 H23A        -4.5720    -3.2760     1.3500 hc         1 B42       0.047700
     64 H24         -4.8650    -2.8440    -1.6470 hc         1 B42       0.045700
     65 H20         -5.0030    -5.4180    -0.0050 hc         1 B42       0.034200
     66 H20A        -5.3240    -5.2870    -1.7330 hc         1 B42       0.034200
     67 H20B        -3.7050    -4.9700    -1.1120 hc         1 B42       0.034200
     68 H19         -6.9500    -2.1780    -0.4690 hc         1 B42       0.034200
     69 H19A        -7.1960    -3.6990    -1.3090 hc         1 B42       0.034200
     70 H19B        -6.9390    -3.6920     0.4340 hc         1 B42       0.034200
@<TRIPOS>BOND
     1     1     2 2   
     2     2     3 2   
     3     2     4 1   
     4     2     5 1   
     5     4    37 1   
     6     4    38 1   
     7     4    39 1   
     8     5     6 1   
     9     5    40 1   
    10     6     7 ar  
    11     6     8 ar  
    12     7    17 ar  
    13     7    41 1   
    14     8     9 ar  
    15     8    42 1   
    16     9    10 1   
    17     9    16 ar  
    18    10    11 2   
    19    10    12 2   
    20    10    13 1   
    21    13    14 2   
    22    14    15 1   
    23    14    18 1   
    24    15    16 1   
    25    15    43 1   
    26    16    17 ar  
    27    17    44 1   
    28    18    19 1   
    29    18    30 2   
    30    19    20 2   
    31    19    21 1   
    32    21    22 1   
    33    21    27 1   
    34    22    23 1   
    35    22    25 1   
    36    22    45 1   
    37    23    24 1   
    38    23    46 1   
    39    23    47 1   
    40    24    26 1   
    41    24    48 1   
    42    24    49 1   
    43    25    26 1   
    44    25    50 1   
    45    25    51 1   
    46    26    52 1   
    47    26    53 1   
    48    27    28 1   
    49    27    54 1   
    50    27    55 1   
    51    28    29 1   
    52    28    30 1   
    53    28    32 1   
    54    29    56 1   
    55    29    57 1   
    56    29    58 1   
    57    30    31 1   
    58    31    59 1   
    59    32    33 1   
    60    32    60 1   
    61    32    61 1   
    62    33    34 1   
    63    33    62 1   
    64    33    63 1   
    65    34    35 1   
    66    34    36 1   
    67    34    64 1   
    68    35    65 1   
    69    35    66 1   
    70    35    67 1   
    71    36    68 1   
    72    36    69 1   
    73    36    70 1   
@<TRIPOS>SUBSTRUCTURE
     1 B42         1 TEMP              0 ****  ****    0 ROOT
