@<TRIPOS>MOLECULE
B42
   70    73     1     0     0
SMALL
No Charge or Current Charge


@<TRIPOS>ATOM
      1 O33          7.2370     2.0540    -1.6320 o          1 B42      -0.525500
      2 S36          7.5190     1.0210    -0.6340 s6         1 B42       1.187100
      3 O32          8.7230     0.1960    -0.7340 o          1 B42      -0.525500
      4 C21          7.4390     1.7290     0.9970 c3         1 B42      -0.381100
      5 N28          6.2540    -0.0560    -0.6940 nu         1 B42      -0.871100
      6 C5           4.8840     0.1400    -0.4670 ca         1 B42       0.199000
      7 C2           4.2630     1.4090    -0.5630 ca         1 B42      -0.011000
      8 C3           4.0840    -0.9780    -0.1480 ca         1 B42      -0.009000
      9 C6           2.7030    -0.8170     0.0840 ca         1 B42      -0.330500
     10 S35          1.6330    -2.1790     0.4420 sy         1 B42       1.252100
     11 O30          1.1070    -2.6570    -0.8400 o          1 B42      -0.540000
     12 O31          2.3450    -3.0870     1.3460 o          1 B42      -0.540000
     13 N26          0.3870    -1.4760     1.2630 ne         1 B42      -0.937300
     14 C9          -0.0850    -0.4330     0.6790 cf         1 B42       0.891500
     15 N25          0.7790     0.4970     0.2570 nu         1 B42      -0.918200
     16 C4           2.1170     0.4250     0.0080 ca         1 B42       0.368000
     17 C1           2.8810     1.5480    -0.3260 ca         1 B42      -0.145000
     18 C7          -1.5030    -0.1530     0.8500 cf         1 B42      -0.506800
     19 C10         -2.0670     1.0150     0.1110 c          1 B42       0.614200
     20 O29         -1.4110     1.6160    -0.7280 o          1 B42      -0.620000
     21 N27         -3.3860     1.4200     0.4000 n          1 B42      -0.381800
     22 C16         -3.9850     2.5510    -0.3890 c5         1 B42       0.101700
     23 C14         -3.9330     3.8280     0.5140 c5         1 B42      -0.095900
     24 C12         -5.2450     4.5500     0.1230 c5         1 B42      -0.081400
     25 C13         -5.5130     2.2900    -0.6450 c5         1 B42      -0.095900
     26 C11         -6.2400     3.3680     0.2080 c5         1 B42      -0.081400
     27 C15         -4.0330     0.9030     1.6300 c6         1 B42       0.097000
     28 C17         -3.8590    -0.6240     1.7440 c6         1 B42      -0.050800
     29 C18         -4.4310    -1.0770     3.1310 c3         1 B42      -0.082100
     30 C8          -2.3520    -0.8950     1.6110 c2         1 B42       0.317900
     31 O34         -1.9050    -1.9450     2.3090 oh         1 B42      -0.509100
     32 C22         -4.6510    -1.3430     0.5900 c3         1 B42      -0.065400
     33 C23         -4.5750    -2.8940     0.5390 c3         1 B42      -0.075400
     34 C24         -5.2500    -3.5340    -0.7060 c3         1 B42      -0.060700
     35 C20         -4.9810    -5.0550    -0.7570 c3         1 B42      -0.089100
     36 C19         -6.7680    -3.2440    -0.7890 c3         1 B42      -0.089100
     37 H21          6.4800     2.2470     1.0920 h1         1 B42       0.105367
     38 H21A         7.5230     0.9090     1.7170 h1         1 B42       0.105367
     39 H21B         8.2770     2.4270     1.0910 h1         1 B42       0.105367
     40 HN28         6.6550    -0.9690    -0.5170 hn         1 B42       0.492000
     41 H2           4.8360     2.2920    -0.8250 ha         1 B42       0.151000
     42 H3           4.5360    -1.9660    -0.0880 ha         1 B42       0.133000
     43 HN25         0.2700     1.2840    -0.1470 hn         1 B42       0.577000
     44 H1           2.4140     2.5260    -0.3960 ha         1 B42       0.136000
     45 H16         -3.4740     2.7190    -1.3470 h1         1 B42       0.093700
     46 H14         -3.9250     3.6030     1.5860 hc         1 B42       0.051950
     47 H14A        -3.0440     4.4360     0.3110 hc         1 B42       0.051950
     48 H12         -5.4980     5.3620     0.8140 hc         1 B42       0.047700
     49 H12A        -5.1960     4.9760    -0.8870 hc         1 B42       0.047700
     50 H13         -5.7350     2.4430    -1.7080 hc         1 B42       0.051950
     51 H13A        -5.8450     1.2710    -0.4200 hc         1 B42       0.051950
     52 H11         -6.3900     3.0400     1.2440 hc         1 B42       0.047700
     53 H11A        -7.2270     3.6220    -0.1970 hc         1 B42       0.047700
     54 H15         -3.5580     1.3870     2.4960 h1         1 B42       0.060700
     55 H15A        -5.0990     1.1590     1.6680 h1         1 B42       0.060700
     56 H18         -5.4980    -0.8390     3.2180 hc         1 B42       0.050700
     57 H18A        -4.3240    -2.1540     3.3010 hc         1 B42       0.050700
     58 H18B        -3.9160    -0.5690     3.9570 hc         1 B42       0.050700
     59 HO34        -0.9310    -1.9600     2.0730 ho         1 B42       0.563000
     60 H22         -5.7060    -1.0520     0.6600 hc         1 B42       0.053200
     61 H22A        -4.3040    -0.9670    -0.3800 hc         1 B42       0.053200
     62 H23         -3.5220    -3.1970     0.5470 hc         1 B42       0.047700
     63 H23A        -5.0310    -3.3170     1.4420 hc         1 B42       0.047700
     64 H24         -4.7840    -3.0970    -1.5990 hc         1 B42       0.045700
     65 H20         -5.4250    -5.5600     0.1100 hc         1 B42       0.034200
     66 H20A        -5.4090    -5.4950    -1.6660 hc         1 B42       0.034200
     67 H20B        -3.9040    -5.2600    -0.7600 hc         1 B42       0.034200
     68 H19         -6.9630    -2.1730    -0.9140 hc         1 B42       0.034200
     69 H19A        -7.2140    -3.7590    -1.6480 hc         1 B42       0.034200
     70 H19B        -7.2810    -3.5860     0.1180 hc         1 B42       0.034200
@<TRIPOS>BOND
     1     1     2 2   
     2     2     3 2   
     3     2     4 1   
     4     2     5 1   
     5     4    37 1   
     6     4    38 1   
     7     4    39 1   
     8     5     6 1   
     9     5    40 1   
    10     6     7 ar  
    11     6     8 ar  
    12     7    17 ar  
    13     7    41 1   
    14     8     9 ar  
    15     8    42 1   
    16     9    10 1   
    17     9    16 ar  
    18    10    11 2   
    19    10    12 2   
    20    10    13 1   
    21    13    14 2   
    22    14    15 1   
    23    14    18 1   
    24    15    16 1   
    25    15    43 1   
    26    16    17 ar  
    27    17    44 1   
    28    18    19 1   
    29    18    30 2   
    30    19    20 2   
    31    19    21 1   
    32    21    22 1   
    33    21    27 1   
    34    22    23 1   
    35    22    25 1   
    36    22    45 1   
    37    23    24 1   
    38    23    46 1   
    39    23    47 1   
    40    24    26 1   
    41    24    48 1   
    42    24    49 1   
    43    25    26 1   
    44    25    50 1   
    45    25    51 1   
    46    26    52 1   
    47    26    53 1   
    48    27    28 1   
    49    27    54 1   
    50    27    55 1   
    51    28    29 1   
    52    28    30 1   
    53    28    32 1   
    54    29    56 1   
    55    29    57 1   
    56    29    58 1   
    57    30    31 1   
    58    31    59 1   
    59    32    33 1   
    60    32    60 1   
    61    32    61 1   
    62    33    34 1   
    63    33    62 1   
    64    33    63 1   
    65    34    35 1   
    66    34    36 1   
    67    34    64 1   
    68    35    65 1   
    69    35    66 1   
    70    35    67 1   
    71    36    68 1   
    72    36    69 1   
    73    36    70 1   
@<TRIPOS>SUBSTRUCTURE
     1 B42         1 TEMP              0 ****  ****    0 ROOT
