@<TRIPOS>MOLECULE
B43
   50    54     1     0     0
SMALL
No Charge or Current Charge


@<TRIPOS>ATOM
      1 N1           1.3380     3.5180    -0.0340 nv         1 B43      -1.064900
      2 C1           2.3790     2.6690     0.1370 ca         1 B43       0.425900
      3 N4           3.5790     3.2660     0.1600 nb         1 B43      -0.301000
      4 C23          4.6560     2.4490     0.1940 ca         1 B43       0.178900
      5 N3           4.6430     1.0970     0.1630 nb         1 B43      -0.233000
      6 C22          3.4270     0.5160     0.1370 ca         1 B43       0.150500
      7 C2           2.2700     1.2660     0.1660 ca         1 B43      -0.241800
      8 N2           3.0780    -0.8260     0.0180 na         1 B43      -0.171400
      9 C17          4.0270    -1.9460    -0.0550 c5         1 B43       0.078300
     10 C21          3.8060    -3.0660     0.9920 c5         1 B43      -0.094900
     11 C20          4.8260    -4.1450     0.5290 c5         1 B43      -0.081900
     12 C19          4.8960    -3.9820    -1.0250 c5         1 B43      -0.081900
     13 C18          3.9360    -2.8000    -1.3450 c5         1 B43      -0.094900
     14 C16          1.6770    -0.9630    -0.0550 cc         1 B43      -0.157100
     15 C3           1.1670     0.3130     0.1150 cd         1 B43      -0.067400
     16 C4          -0.2810     0.6170     0.1180 ca         1 B43      -0.015800
     17 C15         -1.1680    -0.1990    -0.6170 ca         1 B43      -0.103500
     18 C14         -2.5520     0.0530    -0.6080 ca         1 B43      -0.117500
     19 C7          -3.0710     1.1050     0.1670 ca         1 B43       0.093100
     20 C6          -2.2020     1.9040     0.9240 ca         1 B43      -0.117500
     21 C5          -0.8180     1.6530     0.9110 ca         1 B43      -0.103500
     22 O           -4.4200     1.3790     0.1890 os         1 B43      -0.257200
     23 C8          -5.3840     0.3960     0.1770 ca         1 B43       0.136100
     24 C13         -5.2170    -0.7970     0.9070 ca         1 B43      -0.161000
     25 C12         -6.2230    -1.7790     0.8900 ca         1 B43      -0.078500
     26 C11         -7.3990    -1.5650     0.1490 ca         1 B43      -0.143000
     27 C10         -7.5730    -0.3690    -0.5690 ca         1 B43      -0.078500
     28 C9          -6.5660     0.6120    -0.5510 ca         1 B43      -0.161000
     29 HN1          0.4600     3.1200    -0.3530 hn         1 B43       0.493500
     30 HN1A         1.5410     4.4700    -0.3270 hn         1 B43       0.493500
     31 H23          5.6330     2.9280     0.2180 h5         1 B43       0.044100
     32 H17          5.0470    -1.5490     0.0470 h1         1 B43       0.096700
     33 H21          4.0010    -2.7240     2.0150 hc         1 B43       0.056450
     34 H21A         2.7800    -3.4530     0.9700 hc         1 B43       0.056450
     35 H20          5.8100    -3.9740     0.9800 hc         1 B43       0.047450
     36 H20A         4.5120    -5.1530     0.8250 hc         1 B43       0.047450
     37 H19          5.9210    -3.7530    -1.3420 hc         1 B43       0.047450
     38 H19A         4.5990    -4.8970    -1.5500 hc         1 B43       0.047450
     39 H18          2.9150    -3.1570    -1.5270 hc         1 B43       0.056450
     40 H18A         4.2460    -2.2430    -2.2360 hc         1 B43       0.056450
     41 H16          1.1790    -1.9200    -0.1670 h4         1 B43       0.220000
     42 H15         -0.7850    -1.0150    -1.2250 ha         1 B43       0.124000
     43 H14         -3.2150    -0.5690    -1.2050 ha         1 B43       0.130000
     44 H6          -2.6030     2.7060     1.5400 ha         1 B43       0.130000
     45 H5          -0.1730     2.2330     1.5640 ha         1 B43       0.124000
     46 H13         -4.3140    -0.9620     1.4900 ha         1 B43       0.126000
     47 H12         -6.0940    -2.7020     1.4510 ha         1 B43       0.112500
     48 H11         -8.1780    -2.3240     0.1360 ha         1 B43       0.115000
     49 H10         -8.4860    -0.2030    -1.1380 ha         1 B43       0.112500
     50 H9          -6.6990     1.5390    -1.1040 ha         1 B43       0.126000
@<TRIPOS>BOND
     1     1     2 1   
     2     1    29 1   
     3     1    30 1   
     4     2     3 ar  
     5     2     7 ar  
     6     3     4 ar  
     7     4     5 ar  
     8     4    31 1   
     9     5     6 ar  
    10     6     7 ar  
    11     6     8 1   
    12     7    15 1   
    13     8     9 1   
    14     8    14 1   
    15     9    10 1   
    16     9    13 1   
    17     9    32 1   
    18    10    11 1   
    19    10    33 1   
    20    10    34 1   
    21    11    12 1   
    22    11    35 1   
    23    11    36 1   
    24    12    13 1   
    25    12    37 1   
    26    12    38 1   
    27    13    39 1   
    28    13    40 1   
    29    14    15 2   
    30    14    41 1   
    31    15    16 1   
    32    16    17 ar  
    33    16    21 ar  
    34    17    18 ar  
    35    17    42 1   
    36    18    19 ar  
    37    18    43 1   
    38    19    20 ar  
    39    19    22 1   
    40    20    21 ar  
    41    20    44 1   
    42    21    45 1   
    43    22    23 1   
    44    23    24 ar  
    45    23    28 ar  
    46    24    25 ar  
    47    24    46 1   
    48    25    26 ar  
    49    25    47 1   
    50    26    27 ar  
    51    26    48 1   
    52    27    28 ar  
    53    27    49 1   
    54    28    50 1   
@<TRIPOS>SUBSTRUCTURE
     1 B43         1 TEMP              0 ****  ****    0 ROOT
