@<TRIPOS>MOLECULE
B43
   50    54     1     0     0
SMALL
bcc


@<TRIPOS>ATOM
      1 N1           1.3450     3.5730    -0.0610 nv         1 B43      -0.954500
      2 C1           2.3750     2.7280     0.1230 ca         1 B43       0.754200
      3 N4           3.5740     3.2650     0.3660 nb         1 B43      -0.827000
      4 C23          4.6180     2.4550     0.5260 ca         1 B43       0.704900
      5 N3           4.6430     1.1410     0.4550 nb         1 B43      -0.759000
      6 C22          3.4390     0.6110     0.2270 ca         1 B43       0.478800
      7 C2           2.2410     1.3250     0.0840 ca         1 B43      -0.372400
      8 N2           3.1710    -0.7110     0.0860 na         1 B43      -0.142100
      9 C17          4.1360    -1.7930     0.1760 c5         1 B43       0.049000
     10 C21          3.7200    -2.9030     1.1750 c5         1 B43      -0.094900
     11 C20          3.5550    -4.1720     0.3350 c5         1 B43      -0.081900
     12 C19          4.5540    -3.9730    -0.8020 c5         1 B43      -0.081900
     13 C18          4.3550    -2.5070    -1.1720 c5         1 B43      -0.094900
     14 C16          1.8270    -0.8570    -0.1430 cc         1 B43      -0.107100
     15 C3           1.2040     0.3620    -0.1440 cd         1 B43      -0.067400
     16 C4          -0.2400     0.5660    -0.2910 ca         1 B43      -0.015800
     17 C15         -0.9550    -0.0850    -1.3000 ca         1 B43      -0.121500
     18 C14         -2.3280     0.0630    -1.4140 ca         1 B43      -0.135500
     19 C7          -3.0030     0.8810    -0.5200 ca         1 B43       0.093100
     20 C6          -2.3180     1.5400     0.4880 ca         1 B43      -0.135500
     21 C5          -0.9450     1.3790     0.5990 ca         1 B43      -0.121500
     22 O           -4.3560     1.0720    -0.6500 os         1 B43      -0.257200
     23 C8          -5.2120     0.1600    -0.1060 ca         1 B43       0.136100
     24 C13         -4.7980    -0.9350     0.6430 ca         1 B43      -0.179000
     25 C12         -5.7520    -1.8030     1.1610 ca         1 B43      -0.096500
     26 C11         -7.1050    -1.5910     0.9430 ca         1 B43      -0.161000
     27 C10         -7.5050    -0.4890     0.1940 ca         1 B43      -0.096500
     28 C9          -6.5670     0.3850    -0.3310 ca         1 B43      -0.179000
     29 HN1          0.4850     3.2490    -0.4680 hn         1 B43       0.438300
     30 HN1A         1.5520     4.5520    -0.1720 hn         1 B43       0.438300
     31 H23          5.5650     2.9460     0.7260 h5         1 B43       0.044100
     32 H17          5.0630    -1.3270     0.5070 h1         1 B43       0.096700
     33 H21          4.5180    -3.0410     1.9050 hc         1 B43       0.056450
     34 H21A         2.8220    -2.6400     1.7350 hc         1 B43       0.056450
     35 H20          3.7260    -5.0820     0.9100 hc         1 B43       0.047450
     36 H20A         2.5420    -4.2330    -0.0740 hc         1 B43       0.047450
     37 H19          5.5720    -4.1430    -0.4400 hc         1 B43       0.047450
     38 H19A         4.3910    -4.6460    -1.6450 hc         1 B43       0.047450
     39 H18          3.4610    -2.4090    -1.7930 hc         1 B43       0.056450
     40 H18A         5.1860    -2.0760    -1.7330 hc         1 B43       0.056450
     41 H16          1.3880    -1.8350    -0.2630 h4         1 B43       0.170000
     42 H15         -0.4270    -0.7050    -2.0130 ha         1 B43       0.142000
     43 H14         -2.8680    -0.4430    -2.2050 ha         1 B43       0.148000
     44 H6          -2.8530     2.1680     1.1890 ha         1 B43       0.148000
     45 H5          -0.4220     1.8710     1.4090 ha         1 B43       0.142000
     46 H13         -3.7490    -1.1260     0.8300 ha         1 B43       0.144000
     47 H12         -5.4240    -2.6560     1.7420 ha         1 B43       0.130500
     48 H11         -7.8400    -2.2730     1.3490 ha         1 B43       0.133000
     49 H10         -8.5560    -0.3060     0.0150 ha         1 B43       0.130500
     50 H9          -6.8800     1.2440    -0.9110 ha         1 B43       0.144000
@<TRIPOS>BOND
     1     1     2 1   
     2     1    29 1   
     3     1    30 1   
     4     2     3 ar  
     5     2     7 ar  
     6     3     4 ar  
     7     4     5 ar  
     8     4    31 1   
     9     5     6 ar  
    10     6     7 ar  
    11     6     8 1   
    12     7    15 1   
    13     8     9 1   
    14     8    14 1   
    15     9    10 1   
    16     9    13 1   
    17     9    32 1   
    18    10    11 1   
    19    10    33 1   
    20    10    34 1   
    21    11    12 1   
    22    11    35 1   
    23    11    36 1   
    24    12    13 1   
    25    12    37 1   
    26    12    38 1   
    27    13    39 1   
    28    13    40 1   
    29    14    15 2   
    30    14    41 1   
    31    15    16 1   
    32    16    17 ar  
    33    16    21 ar  
    34    17    18 ar  
    35    17    42 1   
    36    18    19 ar  
    37    18    43 1   
    38    19    20 ar  
    39    19    22 1   
    40    20    21 ar  
    41    20    44 1   
    42    21    45 1   
    43    22    23 1   
    44    23    24 ar  
    45    23    28 ar  
    46    24    25 ar  
    47    24    46 1   
    48    25    26 ar  
    49    25    47 1   
    50    26    27 ar  
    51    26    48 1   
    52    27    28 ar  
    53    27    49 1   
    54    28    50 1   
@<TRIPOS>SUBSTRUCTURE
     1 B43         1 TEMP              0 ****  ****    0 ROOT
