@<TRIPOS>MOLECULE
B45
   63    67     1     0     0
SMALL
No Charge or Current Charge


@<TRIPOS>ATOM
      1 C6          -2.4830    -5.2750    -0.0370 ca         1 B45      -0.088000
      2 C21          0.0890     3.9190    -1.6700 ca         1 B45      -0.065000
      3 C22          0.1200     5.3190    -1.7920 ca         1 B45      -0.154000
      4 C1          -2.1460    -4.5730    -1.2050 ca         1 B45      -0.104000
      5 C5          -2.8550    -4.5680     1.1190 ca         1 B45      -0.104000
      6 C17          1.1230     1.1100    -0.2520 ca         1 B45      -0.115000
      7 C19         -0.0830    -0.9790    -0.0640 ca         1 B45      -0.143000
      8 C24         -0.1350     5.5350     0.6190 ca         1 B45      -0.152000
      9 C20         -0.0580     3.3080    -0.4030 cp         1 B45      -0.056000
     10 C16         -0.0910     1.8240    -0.2920 cp         1 B45      -0.006000
     11 C18          1.1390    -0.2880    -0.1310 ca         1 B45      -0.034300
     12 C13         -1.3200     1.1160    -0.2290 ca         1 B45      -0.128300
     13 C14         -1.3210    -0.2940    -0.1300 ca         1 B45       0.021000
     14 C3          -2.5370    -2.4490    -0.0570 ca         1 B45      -0.030000
     15 C23          0.0070     6.1210    -0.6460 ca         1 B45       0.185000
     16 C2          -2.1740    -3.1680    -1.2200 ca         1 B45       0.136500
     17 C4          -2.8870    -3.1630     1.1100 ca         1 B45       0.136500
     18 C25         -0.1660     4.1370     0.7430 ca         1 B45       0.151000
     19 C10         -3.8270    -0.3450    -0.1120 c          1 B45       0.635000
     20 C12         -2.6420     1.8830    -0.2680 c6         1 B45       0.173300
     21 C29          3.3030    -0.8870    -1.3620 c6         1 B45      -0.070900
     22 C33          3.3240    -0.6570     1.1560 c6         1 B45      -0.070900
     23 C30          4.6360    -1.6680    -1.2680 c6         1 B45       0.176300
     24 C32          4.6600    -1.4380     1.1870 c6         1 B45       0.176300
     25 C28          2.4650    -1.0610    -0.0700 c6         1 B45      -0.019400
     26 C35          7.7330    -1.1100     0.9590 c3         1 B45      -0.105100
     27 C36          6.8730    -3.3570     0.1210 c3         1 B45      -0.105100
     28 N11         -3.8180     1.0210    -0.1920 ns         1 B45      -0.512900
     29 N9          -2.5800    -1.0080    -0.0670 n          1 B45      -0.057000
     30 N31          5.4340    -1.2530    -0.0780 n3         1 B45      -0.736600
     31 F27          0.0370     7.4670    -0.7640 f          1 B45      -0.171000
     32 Cl8         -1.7860    -2.3330    -2.7260 cl         1 B45      -0.172500
     33 Cl7         -3.3190    -2.3180     2.5980 cl         1 B45      -0.172500
     34 Cl26        -0.3380     3.4410     2.3530 cl         1 B45      -0.180000
     35 H6          -2.4600    -6.3630    -0.0270 ha         1 B45       0.124000
     36 H21          0.1770     3.2990    -2.5600 ha         1 B45       0.129000
     37 H22          0.2320     5.7820    -2.7690 ha         1 B45       0.139000
     38 H1          -1.8680    -5.1170    -2.1040 ha         1 B45       0.135500
     39 H5          -3.1140    -5.1090     2.0260 ha         1 B45       0.135500
     40 H17          2.0580     1.6610    -0.3040 ha         1 B45       0.126000
     41 H19         -0.0520    -2.0590     0.0450 ha         1 B45       0.125000
     42 H24         -0.2190     6.1640     1.5010 ha         1 B45       0.149000
     43 H12         -2.6790     2.5910     0.5730 h1         1 B45       0.050700
     44 H12A        -2.6980     2.4650    -1.1990 h1         1 B45       0.050700
     45 H29          3.5200     0.1750    -1.5390 hc         1 B45       0.050450
     46 H29A         2.7300    -1.2400    -2.2290 hc         1 B45       0.050450
     47 H33          2.7650    -0.8460     2.0820 hc         1 B45       0.050450
     48 H33A         3.5390     0.4200     1.1350 hc         1 B45       0.050450
     49 H30          4.4090    -2.7440    -1.2250 h1         1 B45       0.029950
     50 H30A         5.2090    -1.4950    -2.1910 h1         1 B45       0.029950
     51 H32          5.2360    -1.0890     2.0560 h1         1 B45       0.029950
     52 H32A         4.4410    -2.5040     1.3510 h1         1 B45       0.029950
     53 H28          2.2390    -2.1320     0.0300 hc         1 B45       0.050700
     54 H35          8.7760    -1.4080     0.8030 hc         1 B45       0.036700
     55 H35A         7.6720    -0.0220     0.8410 hc         1 B45       0.036700
     56 H35B         7.4610    -1.3650     1.9890 hc         1 B45       0.036700
     57 H36          7.9100    -3.7060     0.0560 hc         1 B45       0.036700
     58 H36A         6.4780    -3.6570     1.0980 hc         1 B45       0.036700
     59 H36B         6.3030    -3.8740    -0.6590 hc         1 B45       0.036700
     60 H34          7.2610    -1.6130    -1.0460 h1         1 B45       0.050700
     61 HN11        -4.7310     1.4570    -0.2230 hn         1 B45       0.335500
     62 O15         -4.8970    -0.9370    -0.0980 o          1 B45      -0.574000
     63 C34          6.8140    -1.8190    -0.0630 c3         1 B45       0.191500
@<TRIPOS>BOND
     1     1     4 ar  
     2     1     5 ar  
     3     1    35 1   
     4     2     3 ar  
     5     2     9 ar  
     6     2    36 1   
     7     3    15 ar  
     8     3    37 1   
     9     4    16 ar  
    10     4    38 1   
    11     5    17 ar  
    12     5    39 1   
    13     6    10 ar  
    14     6    11 ar  
    15     6    40 1   
    16     7    11 ar  
    17     7    13 ar  
    18     7    41 1   
    19     8    15 ar  
    20     8    18 ar  
    21     8    42 1   
    22     9    10 1   
    23     9    18 ar  
    24    10    12 ar  
    25    11    25 1   
    26    12    13 ar  
    27    12    20 1   
    28    13    29 1   
    29    14    16 ar  
    30    14    17 ar  
    31    14    29 1   
    32    15    31 1   
    33    16    32 1   
    34    17    33 1   
    35    18    34 1   
    36    19    28 1   
    37    19    29 1   
    38    19    62 2   
    39    20    28 1   
    40    20    43 1   
    41    20    44 1   
    42    21    23 1   
    43    21    25 1   
    44    21    45 1   
    45    21    46 1   
    46    22    24 1   
    47    22    25 1   
    48    22    47 1   
    49    22    48 1   
    50    23    30 1   
    51    23    49 1   
    52    23    50 1   
    53    24    30 1   
    54    24    51 1   
    55    24    52 1   
    56    25    53 1   
    57    26    54 1   
    58    26    55 1   
    59    26    56 1   
    60    26    63 1   
    61    27    57 1   
    62    27    58 1   
    63    27    59 1   
    64    27    63 1   
    65    28    61 1   
    66    30    63 1   
    67    60    63 1   
@<TRIPOS>SUBSTRUCTURE
     1 B45         1 TEMP              0 ****  ****    0 ROOT
