@<TRIPOS>MOLECULE
B45
   63    67     1     0     0
SMALL
bcc


@<TRIPOS>ATOM
      1 C6          -2.5250    -5.1830     0.0060 ca         1 B45      -0.106000
      2 C21          0.2060     3.8400    -1.5920 ca         1 B45      -0.083000
      3 C22          0.2750     5.2180    -1.7250 ca         1 B45      -0.172000
      4 C1          -2.5000    -4.5480    -1.2260 ca         1 B45      -0.122000
      5 C5          -2.5470    -4.4520     1.1850 ca         1 B45      -0.122000
      6 C17          1.1340     1.0530    -0.2070 ca         1 B45      -0.133000
      7 C19         -0.0750    -1.0050    -0.1200 ca         1 B45      -0.161000
      8 C24         -0.1190     5.4410     0.6520 ca         1 B45      -0.170000
      9 C20         -0.0240     3.2320    -0.3600 cp         1 B45      -0.056000
     10 C16         -0.0620     1.7530    -0.2570 cp         1 B45      -0.006000
     11 C18          1.1400    -0.3370    -0.1380 ca         1 B45      -0.034300
     12 C13         -1.2830     1.0810    -0.2410 ca         1 B45      -0.128300
     13 C14         -1.2810    -0.3080    -0.1720 ca         1 B45       0.113600
     14 C3          -2.5220    -2.4030    -0.1040 ca         1 B45       0.062600
     15 C23          0.1100     5.9920    -0.5940 ca         1 B45       0.149900
     16 C2          -2.5000    -3.1640    -1.2680 ca         1 B45       0.044900
     17 C4          -2.5460    -3.0690     1.1170 ca         1 B45       0.044900
     18 C25         -0.1810     4.0590     0.7490 ca         1 B45       0.059400
     19 C10         -3.7350    -0.3680    -0.2390 c          1 B45       0.844500
     20 C12         -2.5680     1.8470    -0.3110 c6         1 B45       0.173300
     21 C29          3.2840    -0.8850    -1.3380 c6         1 B45      -0.070900
     22 C33          3.2620    -0.7600     1.1520 c6         1 B45      -0.070900
     23 C30          4.6030    -1.6360    -1.2370 c6         1 B45       0.176300
     24 C32          4.5850    -1.5130     1.1550 c6         1 B45       0.176300
     25 C28          2.4340    -1.1050    -0.0860 c6         1 B45      -0.019400
     26 C35          7.5710    -0.9420     0.9510 c3         1 B45      -0.105100
     27 C36          6.8690    -3.2300     0.1780 c3         1 B45      -0.105100
     28 N11         -3.7140     0.9690    -0.3180 ns         1 B45      -0.579900
     29 N9          -2.5020    -0.9970    -0.1610 n          1 B45      -0.309200
     30 N31          5.3390    -1.2390    -0.0530 n3         1 B45      -0.736600
     31 F27          0.1760     7.3240    -0.7000 f          1 B45      -0.135900
     32 CL8         -2.4640    -2.3520    -2.7870 cl         1 B45      -0.080900
     33 CL7         -2.5690    -2.1390     2.5670 cl         1 B45      -0.080900
     34 CL26        -0.4540     3.3570     2.3050 cl         1 B45      -0.088400
     35 H6          -2.5260    -6.2630     0.0500 ha         1 B45       0.142000
     36 H21          0.3350     3.2160    -2.4660 ha         1 B45       0.147000
     37 H22          0.4560     5.6760    -2.6880 ha         1 B45       0.157000
     38 H1          -2.4820    -5.1240    -2.1400 ha         1 B45       0.153500
     39 H5          -2.5680    -4.9530     2.1420 ha         1 B45       0.153500
     40 H17          2.0630     1.6090    -0.2230 ha         1 B45       0.144000
     41 H19         -0.0690    -2.0860    -0.0690 ha         1 B45       0.143000
     42 H24         -0.2400     6.0730     1.5220 ha         1 B45       0.167000
     43 H12         -2.6470     2.5330     0.5390 h1         1 B45       0.050700
     44 H12A        -2.5850     2.4690    -1.2110 h1         1 B45       0.050700
     45 H29          3.4880     0.1830    -1.4660 hc         1 B45       0.050450
     46 H29A         2.7440    -1.2200    -2.2270 hc         1 B45       0.050450
     47 H33          2.7050    -1.0040     2.0590 hc         1 B45       0.050450
     48 H33A         3.4630     0.3150     1.1740 hc         1 B45       0.050450
     49 H30          4.3970    -2.7210    -1.2660 h1         1 B45       0.029950
     50 H30A         5.2140    -1.4160    -2.1170 h1         1 B45       0.029950
     51 H32          5.1640    -1.1950     2.0240 h1         1 B45       0.029950
     52 H32A         4.3830    -2.5900     1.2890 h1         1 B45       0.029950
     53 H28          2.1880    -2.1730    -0.0350 hc         1 B45       0.050700
     54 H35          8.6270    -1.1700     0.7990 hc         1 B45       0.036700
     55 H35A         7.4340     0.1320     0.8210 hc         1 B45       0.036700
     56 H35B         7.3360    -1.1920     1.9870 hc         1 B45       0.036700
     57 H36          7.9060    -3.5330     0.0230 hc         1 B45       0.036700
     58 H36A         6.5930    -3.5220     1.1930 hc         1 B45       0.036700
     59 H36B         6.2540    -3.8060    -0.5150 hc         1 B45       0.036700
     60 H34          7.1080    -1.4960    -1.0400 h1         1 B45       0.050700
     61 HN11        -4.6200     1.4070    -0.3790 hn         1 B45       0.335500
     62 O15         -4.7630    -1.0270    -0.2380 o          1 B45      -0.649500
     63 C34          6.7170    -1.7230    -0.0430 c3         1 B45       0.191500
@<TRIPOS>BOND
     1     1     4 ar  
     2     1     5 ar  
     3     1    35 1   
     4     2     3 ar  
     5     2     9 ar  
     6     2    36 1   
     7     3    15 ar  
     8     3    37 1   
     9     4    16 ar  
    10     4    38 1   
    11     5    17 ar  
    12     5    39 1   
    13     6    10 ar  
    14     6    11 ar  
    15     6    40 1   
    16     7    11 ar  
    17     7    13 ar  
    18     7    41 1   
    19     8    15 ar  
    20     8    18 ar  
    21     8    42 1   
    22     9    10 1   
    23     9    18 ar  
    24    10    12 ar  
    25    11    25 1   
    26    12    13 ar  
    27    12    20 1   
    28    13    29 1   
    29    14    16 ar  
    30    14    17 ar  
    31    14    29 1   
    32    15    31 1   
    33    16    32 1   
    34    17    33 1   
    35    18    34 1   
    36    19    28 1   
    37    19    29 1   
    38    19    62 2   
    39    20    28 1   
    40    20    43 1   
    41    20    44 1   
    42    21    23 1   
    43    21    25 1   
    44    21    45 1   
    45    21    46 1   
    46    22    24 1   
    47    22    25 1   
    48    22    47 1   
    49    22    48 1   
    50    23    30 1   
    51    23    49 1   
    52    23    50 1   
    53    24    30 1   
    54    24    51 1   
    55    24    52 1   
    56    25    53 1   
    57    26    54 1   
    58    26    55 1   
    59    26    56 1   
    60    26    63 1   
    61    27    57 1   
    62    27    58 1   
    63    27    59 1   
    64    27    63 1   
    65    28    61 1   
    66    30    63 1   
    67    60    63 1   
@<TRIPOS>SUBSTRUCTURE
     1 B45         1 TEMP              0 ****  ****    0 ROOT
