@<TRIPOS>MOLECULE
B46
   52    55     1     0     0
SMALL
No Charge or Current Charge


@<TRIPOS>ATOM
      1 O1          -4.5230     1.4100     1.1190 o          1 B46      -0.547000
      2 C2          -5.0210     0.5430     0.4190 c          1 B46       0.640100
      3 N3          -4.8370    -0.8000     0.5810 ns         1 B46      -0.490900
      4 C4          -3.9810    -1.4080     1.6080 c3         1 B46       0.093700
      5 C5          -2.5400    -1.5490     1.1780 cc         1 B46       0.202300
      6 C6          -1.6180    -0.4900     1.2670 cc         1 B46      -0.191000
      7 C7          -0.4460    -0.9840     0.7950 cd         1 B46      -0.084000
      8 N8          -0.6970    -2.3040     0.4310 na         1 B46       0.027800
      9 N9          -2.0260    -2.6630     0.6780 nd         1 B46      -0.508800
     10 C11          0.7930    -0.2650     0.6710 cd         1 B46      -0.149000
     11 S12          1.0270     1.4220     1.0610 ss         1 B46       0.031600
     12 C13          2.6980     1.2170     0.5050 cd         1 B46       0.494900
     13 N14          3.0400     0.0010     0.0930 nc         1 B46      -0.665000
     14 C15          1.9580    -0.8180     0.1920 cc         1 B46       0.462900
     15 N16          2.1770    -2.1300    -0.1560 nh         1 B46      -0.731300
     16 C17          2.8340    -2.4420    -1.4550 c6         1 B46       0.172800
     17 C18          2.5080    -3.8870    -1.9070 c6         1 B46      -0.079400
     18 C19          2.9100    -4.9120    -0.8210 c6         1 B46      -0.077400
     19 C20          2.2560    -4.5440     0.5320 c6         1 B46      -0.079400
     20 C21          2.5660    -3.0770     0.9260 c6         1 B46       0.172800
     21 C22          3.6670     2.3290     0.5070 ca         1 B46      -0.191500
     22 C23          3.3150     3.6270     0.9410 ca         1 B46      -0.061000
     23 C24          4.2950     4.6310     0.9120 ca         1 B46      -0.165000
     24 C25          5.5850     4.3210     0.4580 ca         1 B46       0.349900
     25 N26          5.9350     3.0840     0.0400 nb         1 B46      -0.668000
     26 C27          4.9900     2.1130     0.0670 ca         1 B46       0.379900
     27 O28         -5.8440     0.7510    -0.6430 os         1 B46      -0.456100
     28 C29         -6.1560     2.1120    -0.9770 c3         1 B46       0.269700
     29 C30         -7.0490     2.1090    -2.1440 c1         1 B46      -0.158100
     30 C31         -7.7840     2.1350    -3.1060 c1         1 B46      -0.207000
     31 HN3         -5.3080    -1.3960    -0.0870 hn         1 B46       0.332500
     32 H4          -4.0250    -0.8020     2.5220 h1         1 B46       0.071700
     33 H4A         -4.3810    -2.4010     1.8530 h1         1 B46       0.071700
     34 H6          -1.8280     0.5070     1.6380 ha         1 B46       0.159000
     35 H17          2.4980    -1.7380    -2.2300 h1         1 B46       0.047200
     36 H17A         3.9250    -2.3280    -1.3620 h1         1 B46       0.047200
     37 H18          1.4340    -3.9710    -2.1210 hc         1 B46       0.047700
     38 H18A         3.0330    -4.1090    -2.8450 hc         1 B46       0.047700
     39 H19          2.6080    -5.9240    -1.1240 hc         1 B46       0.043700
     40 H19A         4.0030    -4.9270    -0.7120 hc         1 B46       0.043700
     41 H20          1.1700    -4.6920     0.4710 hc         1 B46       0.047700
     42 H20A         2.6170    -5.2210     1.3180 hc         1 B46       0.047700
     43 H21          3.6420    -2.9790     1.1350 h1         1 B46       0.047200
     44 H21A         2.0330    -2.8330     1.8570 h1         1 B46       0.047200
     45 H23          2.3140     3.8660     1.2930 ha         1 B46       0.122000
     46 H24          4.0640     5.6420     1.2380 ha         1 B46       0.128000
     47 H25          6.3620     5.0830     0.4260 h4         1 B46       0.022100
     48 H27          5.3200     1.1340    -0.2790 h4         1 B46       0.041100
     49 H29         -6.6590     2.6170    -0.1410 h1         1 B46       0.066200
     50 H29A        -5.2450     2.6750    -1.2230 h1         1 B46       0.066200
     51 H31         -8.4350     2.1440    -3.9590 ha         1 B46       0.257000
     52 HN8         -0.0140    -2.9420     0.0220 hn         1 B46       0.402000
@<TRIPOS>BOND
     1     1     2 2   
     2     2     3 1   
     3     2    27 1   
     4     3     4 1   
     5     3    31 1   
     6     4     5 1   
     7     4    32 1   
     8     4    33 1   
     9     5     6 1   
    10     5     9 2   
    11     6     7 2   
    12     6    34 1   
    13     7     8 1   
    14     7    10 1   
    15     8     9 1   
    16     8    52 1   
    17    10    11 1   
    18    10    14 2   
    19    11    12 1   
    20    12    13 2   
    21    12    21 1   
    22    13    14 1   
    23    14    15 1   
    24    15    16 1   
    25    15    20 1   
    26    16    17 1   
    27    16    35 1   
    28    16    36 1   
    29    17    18 1   
    30    17    37 1   
    31    17    38 1   
    32    18    19 1   
    33    18    39 1   
    34    18    40 1   
    35    19    20 1   
    36    19    41 1   
    37    19    42 1   
    38    20    43 1   
    39    20    44 1   
    40    21    22 ar  
    41    21    26 ar  
    42    22    23 ar  
    43    22    45 1   
    44    23    24 ar  
    45    23    46 1   
    46    24    25 ar  
    47    24    47 1   
    48    25    26 ar  
    49    26    48 1   
    50    27    28 1   
    51    28    29 1   
    52    28    49 1   
    53    28    50 1   
    54    29    30 3   
    55    30    51 1   
@<TRIPOS>SUBSTRUCTURE
     1 B46         1 TEMP              0 ****  ****    0 ROOT
