@<TRIPOS>MOLECULE
B46
   52    55     1     0     0
SMALL
bcc


@<TRIPOS>ATOM
      1 O1          -4.7780     1.2390     1.2310 o          1 B46      -0.596000
      2 C2          -5.1380     0.4520     0.3800 c          1 B46       0.756100
      3 N3          -4.9190    -0.8710     0.3960 ns         1 B46      -0.557900
      4 C4          -4.1170    -1.5060     1.4190 c3         1 B46       0.093700
      5 C5          -2.6500    -1.4840     1.1250 cc         1 B46       0.267600
      6 C6          -1.7750    -0.3830     1.1300 cc         1 B46      -0.274300
      7 C7          -0.5500    -0.9120     0.7740 cd         1 B46      -0.033300
      8 N8          -0.7570    -2.2320     0.5880 na         1 B46       0.027400
      9 N9          -2.0120    -2.5940     0.7940 nd         1 B46      -0.508800
     10 C11          0.7500    -0.3080     0.6090 cd         1 B46      -0.069400
     11 S12          1.0180     1.3690     0.8750 ss         1 B46      -0.113300
     12 C13          2.6920     1.1470     0.4760 cd         1 B46       0.494900
     13 N14          3.0020    -0.0740     0.1750 nc         1 B46      -0.665000
     14 C15          1.9290    -0.9050     0.2430 cc         1 B46       0.528200
     15 N16          2.0310    -2.2740    -0.0450 nh         1 B46      -0.731300
     16 C17          2.3680    -2.5360    -1.4470 c6         1 B46       0.172800
     17 C18          2.2550    -4.0220    -1.7450 c6         1 B46      -0.079400
     18 C19          3.1290    -4.8370    -0.8000 c6         1 B46      -0.077400
     19 C20          2.8110    -4.4880     0.6500 c6         1 B46      -0.079400
     20 C21          2.9110    -2.9890     0.8820 c6         1 B46       0.172800
     21 C22          3.6440     2.2510     0.4940 ca         1 B46      -0.256800
     22 C23          3.2670     3.5680     0.7460 ca         1 B46      -0.079000
     23 C24          4.2350     4.5560     0.7460 ca         1 B46      -0.248300
     24 C25          5.5500     4.1960     0.4940 ca         1 B46       0.415200
     25 N26          5.9250     2.9440     0.2520 nb         1 B46      -0.668000
     26 C27          4.9970     2.0010     0.2530 ca         1 B46       0.445200
     27 O28         -5.8360     0.8080    -0.7110 os         1 B46      -0.432900
     28 C29         -6.1490     2.1920    -0.8290 c3         1 B46       0.246500
     29 C30         -6.8800     2.3710    -2.0750 c1         1 B46      -0.158100
     30 C31         -7.4830     2.5500    -3.0970 c1         1 B46      -0.119500
     31 HN3         -5.1880    -1.4210    -0.4040 hn         1 B46       0.332500
     32 H4          -4.3220    -1.0280     2.3760 h1         1 B46       0.071700
     33 H4A         -4.4460    -2.5410     1.5030 h1         1 B46       0.071700
     34 H6          -2.0100     0.6430     1.3620 ha         1 B46       0.177000
     35 H17          1.6790    -1.9700    -2.0770 h1         1 B46       0.047200
     36 H17A         3.3850    -2.1860    -1.6770 h1         1 B46       0.047200
     37 H18          1.2090    -4.3300    -1.6440 hc         1 B46       0.047700
     38 H18A         2.5380    -4.1990    -2.7840 hc         1 B46       0.047700
     39 H19          2.9910    -5.9050    -0.9750 hc         1 B46       0.043700
     40 H19A         4.1830    -4.6190    -1.0010 hc         1 B46       0.043700
     41 H20          1.8000    -4.8270     0.9000 hc         1 B46       0.047700
     42 H20A         3.4940    -4.9990     1.3310 hc         1 B46       0.047700
     43 H21          3.9560    -2.6660     0.7640 h1         1 B46       0.047200
     44 H21A         2.6090    -2.7420     1.9020 h1         1 B46       0.047200
     45 H23          2.2340     3.8320     0.9390 ha         1 B46       0.140000
     46 H24          3.9760     5.5880     0.9360 ha         1 B46       0.146000
     47 H25          6.3310     4.9470     0.4880 h4         1 B46       0.022100
     48 H27          5.3280     0.9890     0.0540 h4         1 B46       0.041100
     49 H29         -6.7620     2.5290     0.0110 h1         1 B46       0.066200
     50 H29A        -5.2420     2.8010    -0.8420 h1         1 B46       0.066200
     51 H31         -8.0180     2.7040    -4.0060 ha         1 B46       0.169500
     52 HN8         -0.0340    -2.8910     0.3240 hn         1 B46       0.351700
@<TRIPOS>BOND
     1     1     2 2   
     2     2     3 1   
     3     2    27 1   
     4     3     4 1   
     5     3    31 1   
     6     4     5 1   
     7     4    32 1   
     8     4    33 1   
     9     5     6 1   
    10     5     9 2   
    11     6     7 2   
    12     6    34 1   
    13     7     8 1   
    14     7    10 1   
    15     8     9 1   
    16     8    52 1   
    17    10    11 1   
    18    10    14 2   
    19    11    12 1   
    20    12    13 2   
    21    12    21 1   
    22    13    14 1   
    23    14    15 1   
    24    15    16 1   
    25    15    20 1   
    26    16    17 1   
    27    16    35 1   
    28    16    36 1   
    29    17    18 1   
    30    17    37 1   
    31    17    38 1   
    32    18    19 1   
    33    18    39 1   
    34    18    40 1   
    35    19    20 1   
    36    19    41 1   
    37    19    42 1   
    38    20    43 1   
    39    20    44 1   
    40    21    22 ar  
    41    21    26 ar  
    42    22    23 ar  
    43    22    45 1   
    44    23    24 ar  
    45    23    46 1   
    46    24    25 ar  
    47    24    47 1   
    48    25    26 ar  
    49    26    48 1   
    50    27    28 1   
    51    28    29 1   
    52    28    49 1   
    53    28    50 1   
    54    29    30 3   
    55    30    51 1   
@<TRIPOS>SUBSTRUCTURE
     1 B46         1 TEMP              0 ****  ****    0 ROOT
