@<TRIPOS>MOLECULE
B47
   52    55     1     0     0
SMALL
bcc


@<TRIPOS>ATOM
      1 C1           6.1360    -2.7900    -2.3720 c3         1 B47       0.148700
      2 O2           6.0330    -1.5840    -1.6230 os         1 B47      -0.436900
      3 C3           5.4010    -1.6530    -0.4480 c          1 B47       0.751100
      4 O4           4.9090    -2.6710    -0.0010 o          1 B47      -0.595000
      5 N5           5.4050    -0.4590     0.1720 ns         1 B47      -0.559900
      6 C6           4.6860    -0.2300     1.4060 c3         1 B47       0.091700
      7 C7           3.2470     0.1240     1.1970 cc         1 B47       0.269600
      8 C8           2.2050    -0.7070     0.7470 cc         1 B47      -0.278300
      9 C9           1.0950     0.1150     0.7060 cd         1 B47      -0.024300
     10 N10          1.5220     1.3300     1.1110 na         1 B47       0.021400
     11 N11          2.8120     1.3540     1.4130 nd         1 B47      -0.510800
     12 C13         -0.2770    -0.1490     0.3510 cd         1 B47      -0.099400
     13 S14         -0.8730    -1.7490     0.1450 ss         1 B47      -0.106300
     14 C15         -2.4590    -1.1100    -0.1320 cd         1 B47       0.497900
     15 N16         -2.5140     0.1860    -0.0950 nc         1 B47      -0.674000
     16 C17         -1.3060     0.7440     0.1700 cc         1 B47       0.547200
     17 N18         -1.1330     2.1280     0.2380 nh         1 B47      -0.738300
     18 C19         -2.2650     2.8590     0.7990 c6         1 B47       0.182300
     19 C20         -1.8640     4.2960     1.0920 c6         1 B47      -0.099400
     20 C21         -1.3580     4.9740    -0.1690 c6         1 B47       0.147100
     21 O22         -0.9700     6.2910     0.1590 oh         1 B47      -0.592800
     22 C23         -0.2160     4.1620    -0.7670 c6         1 B47      -0.099400
     23 C24         -0.6480     2.7250    -1.0100 c6         1 B47       0.182300
     24 C25         -3.6100    -1.9720    -0.3910 ca         1 B47      -0.140500
     25 C26         -4.8450    -1.3910    -0.6900 ca         1 B47      -0.098500
     26 C27         -5.9500    -2.1880    -0.9350 ca         1 B47      -0.132500
     27 C28         -5.8410    -3.5730    -0.8870 ca         1 B47      -0.112000
     28 C29         -4.6170    -4.1560    -0.5910 ca         1 B47      -0.132500
     29 C30         -3.5080    -3.3620    -0.3430 ca         1 B47      -0.098500
     30 H1           6.6960    -3.5540    -1.8330 h1         1 B47       0.047033
     31 H1A          5.1570    -3.1850    -2.6390 h1         1 B47       0.047033
     32 H1B          6.6740    -2.5300    -3.2790 h1         1 B47       0.047033
     33 HN5          5.7470     0.3460    -0.3280 hn         1 B47       0.327500
     34 H6           4.7680    -1.1180     2.0310 h1         1 B47       0.072700
     35 H6A          5.1820     0.5830     1.9350 h1         1 B47       0.072700
     36 H8           2.2610    -1.7520     0.4930 ha         1 B47       0.178000
     37 H19         -3.1260     2.8480     0.1170 h1         1 B47       0.049200
     38 H19A        -2.5780     2.3660     1.7190 h1         1 B47       0.049200
     39 H20         -2.7290     4.8320     1.4910 hc         1 B47       0.058200
     40 H20A        -1.0830     4.3120     1.8590 hc         1 B47       0.058200
     41 H21         -2.1820     4.9870    -0.9000 h1         1 B47       0.028700
     42 HO22        -0.6710     6.7260    -0.6460 ho         1 B47       0.404000
     43 H23          0.1100     4.6000    -1.7140 hc         1 B47       0.058200
     44 H23A         0.6420     4.1810    -0.0860 hc         1 B47       0.058200
     45 H24          0.1940     2.1390    -1.3810 h1         1 B47       0.049200
     46 H24A        -1.4280     2.6920    -1.7860 h1         1 B47       0.049200
     47 H26         -4.9340    -0.3140    -0.7300 ha         1 B47       0.142500
     48 H27         -6.9010    -1.7270    -1.1680 ha         1 B47       0.135500
     49 H28         -6.7060    -4.1940    -1.0810 ha         1 B47       0.134000
     50 H29         -4.5230    -5.2330    -0.5490 ha         1 B47       0.135500
     51 H30         -2.5660    -3.8430    -0.1060 ha         1 B47       0.142500
     52 HN10         0.9370     2.1480     1.2190 hn         1 B47       0.346700
@<TRIPOS>BOND
     1     1     2 1   
     2     1    30 1   
     3     1    31 1   
     4     1    32 1   
     5     2     3 1   
     6     3     4 2   
     7     3     5 1   
     8     5     6 1   
     9     5    33 1   
    10     6     7 1   
    11     6    34 1   
    12     6    35 1   
    13     7     8 1   
    14     7    11 2   
    15     8     9 2   
    16     8    36 1   
    17     9    10 1   
    18     9    12 1   
    19    10    11 1   
    20    10    52 1   
    21    12    13 1   
    22    12    16 2   
    23    13    14 1   
    24    14    15 2   
    25    14    24 1   
    26    15    16 1   
    27    16    17 1   
    28    17    18 1   
    29    17    23 1   
    30    18    19 1   
    31    18    37 1   
    32    18    38 1   
    33    19    20 1   
    34    19    39 1   
    35    19    40 1   
    36    20    21 1   
    37    20    22 1   
    38    20    41 1   
    39    21    42 1   
    40    22    23 1   
    41    22    43 1   
    42    22    44 1   
    43    23    45 1   
    44    23    46 1   
    45    24    25 ar  
    46    24    29 ar  
    47    25    26 ar  
    48    25    47 1   
    49    26    27 ar  
    50    26    48 1   
    51    27    28 ar  
    52    27    49 1   
    53    28    29 ar  
    54    28    50 1   
    55    29    51 1   
@<TRIPOS>SUBSTRUCTURE
     1 B47         1 TEMP              0 ****  ****    0 ROOT
