@<TRIPOS>MOLECULE
B47
   52    55     1     0     0
SMALL
No Charge or Current Charge


@<TRIPOS>ATOM
      1 C1           6.2880    -2.7940    -2.3650 c3         1 B47       0.171900
      2 O2           6.1750    -1.6450    -1.5050 os         1 B47      -0.460100
      3 C3           5.3590    -1.7460    -0.4190 c          1 B47       0.635100
      4 O4           4.7110    -2.7300    -0.0990 o          1 B47      -0.546000
      5 N5           5.3870    -0.5650     0.2650 ns         1 B47      -0.492900
      6 C6           4.6090    -0.2850     1.4800 c3         1 B47       0.091700
      7 C7           3.2250     0.2510     1.1960 cc         1 B47       0.204300
      8 C8           2.1420    -0.5880     0.8780 cc         1 B47      -0.195000
      9 C9           1.0840     0.2380     0.6820 cd         1 B47      -0.075000
     10 N10          1.5540     1.5310     0.8970 na         1 B47       0.021800
     11 N11          2.9140     1.5390     1.2190 nd         1 B47      -0.510800
     12 C13         -0.2560    -0.1600     0.3440 cd         1 B47      -0.179000
     13 S14         -0.8060    -1.8090     0.1710 ss         1 B47       0.038600
     14 C15         -2.4190    -1.1370    -0.1390 cd         1 B47       0.497900
     15 N16         -2.5150     0.1900    -0.1310 nc         1 B47      -0.674000
     16 C17         -1.2930     0.7200     0.1440 cc         1 B47       0.481900
     17 N18         -1.2310     2.0930     0.1340 nh         1 B47      -0.738300
     18 C19         -2.2220     2.8710     0.9260 c6         1 B47       0.182300
     19 C20         -1.6960     4.2940     1.2190 c6         1 B47      -0.099400
     20 C21         -1.3430     5.0270    -0.0940 c6         1 B47       0.170300
     21 O22         -0.7930     6.3150     0.1980 oh         1 B47      -0.655000
     22 C23         -0.3360     4.1880    -0.9120 c6         1 B47      -0.099400
     23 C24         -0.8730     2.7560    -1.1490 c6         1 B47       0.182300
     24 C25         -3.5970    -2.0030    -0.4050 ca         1 B47      -0.140500
     25 C26         -4.8680    -1.4330    -0.6620 ca         1 B47      -0.080500
     26 C27         -5.9860    -2.2470    -0.9130 ca         1 B47      -0.114500
     27 C28         -5.8550    -3.6440    -0.9130 ca         1 B47      -0.094000
     28 C29         -4.6040    -4.2250    -0.6600 ca         1 B47      -0.114500
     29 C30         -3.4830    -3.4150    -0.4080 ca         1 B47      -0.080500
     30 H1           6.6800    -3.6590    -1.8150 h1         1 B47       0.047033
     31 H1A          5.3110    -3.0640    -2.7870 h1         1 B47       0.047033
     32 H1B          6.9710    -2.5820    -3.1980 h1         1 B47       0.047033
     33 HN5          5.9660     0.1640    -0.1300 hn         1 B47       0.327500
     34 H6           4.5220    -1.2040     2.0750 h1         1 B47       0.072700
     35 H6A          5.1590     0.4470     2.0860 h1         1 B47       0.072700
     36 H8           2.1740    -1.6700     0.8040 ha         1 B47       0.160000
     37 H19         -3.1730     2.9400     0.3770 h1         1 B47       0.049200
     38 H19A        -2.4320     2.3620     1.8780 h1         1 B47       0.049200
     39 H20         -2.4570     4.8600     1.7730 hc         1 B47       0.058200
     40 H20A        -0.8130     4.2330     1.8680 hc         1 B47       0.058200
     41 H21         -2.2650     5.1410    -0.6850 h1         1 B47       0.028700
     42 HO22        -0.6770     6.7740    -0.6630 ho         1 B47       0.443000
     43 H23         -0.1430     4.6680    -1.8810 hc         1 B47       0.058200
     44 H23A         0.6280     4.1410    -0.3890 hc         1 B47       0.058200
     45 H24         -0.1110     2.1680    -1.6830 h1         1 B47       0.049200
     46 H24A        -1.7580     2.8030    -1.8010 h1         1 B47       0.049200
     47 H26         -4.9990    -0.3520    -0.6680 ha         1 B47       0.124500
     48 H27         -6.9550    -1.7930    -1.1090 ha         1 B47       0.117500
     49 H28         -6.7210    -4.2740    -1.1070 ha         1 B47       0.116000
     50 H29         -4.5000    -5.3090    -0.6590 ha         1 B47       0.117500
     51 H30         -2.5300    -3.9020    -0.2150 ha         1 B47       0.124500
     52 HN10         0.9900     2.3790     0.8420 hn         1 B47       0.397000
@<TRIPOS>BOND
     1     1     2 1   
     2     1    30 1   
     3     1    31 1   
     4     1    32 1   
     5     2     3 1   
     6     3     4 2   
     7     3     5 1   
     8     5     6 1   
     9     5    33 1   
    10     6     7 1   
    11     6    34 1   
    12     6    35 1   
    13     7     8 1   
    14     7    11 2   
    15     8     9 2   
    16     8    36 1   
    17     9    10 1   
    18     9    12 1   
    19    10    11 1   
    20    10    52 1   
    21    12    13 1   
    22    12    16 2   
    23    13    14 1   
    24    14    15 2   
    25    14    24 1   
    26    15    16 1   
    27    16    17 1   
    28    17    18 1   
    29    17    23 1   
    30    18    19 1   
    31    18    37 1   
    32    18    38 1   
    33    19    20 1   
    34    19    39 1   
    35    19    40 1   
    36    20    21 1   
    37    20    22 1   
    38    20    41 1   
    39    21    42 1   
    40    22    23 1   
    41    22    43 1   
    42    22    44 1   
    43    23    45 1   
    44    23    46 1   
    45    24    25 ar  
    46    24    29 ar  
    47    25    26 ar  
    48    25    47 1   
    49    26    27 ar  
    50    26    48 1   
    51    27    28 ar  
    52    27    49 1   
    53    28    29 ar  
    54    28    50 1   
    55    29    51 1   
@<TRIPOS>SUBSTRUCTURE
     1 B47         1 TEMP              0 ****  ****    0 ROOT
