@<TRIPOS>MOLECULE
B48
   29    31     1     0     0
SMALL
abcg2


@<TRIPOS>ATOM
      1 C1          11.6190    -5.0400    -0.6260 c3         1 B48       0.034900
      2 S2          10.4510    -5.1220    -2.0100 ss         1 B48      -0.359300
      3 C3           9.1900    -6.1500    -1.3490 cc         1 B48       0.361300
      4 C4           8.1390    -6.7240    -2.0990 cc         1 B48      -0.187000
      5 C5           7.3840    -7.4290    -1.1750 cd         1 B48      -0.047000
      6 N6           8.0050    -7.2570     0.0210 na         1 B48      -0.015200
      7 N8           9.1040    -6.4740    -0.0600 nd         1 B48      -0.518800
      8 C9           6.1860    -8.2270    -1.3320 cd         1 B48      -0.181000
      9 S10          5.9460    -9.6880    -0.4170 ss         1 B48      -0.055400
     10 C11          4.4090    -9.9120    -1.2060 cd         1 B48       0.551900
     11 N12          4.1280    -8.9750    -2.0760 nc         1 B48      -0.649000
     12 C13          5.1060    -8.0200    -2.1600 cc         1 B48       0.339300
     13 C14          4.9040    -6.8680    -3.0890 c3         1 B48      -0.127400
     14 C15          3.5280   -11.0170    -0.9020 cd         1 B48      -0.278500
     15 C16          2.2400   -11.1910    -1.3560 cc         1 B48      -0.071000
     16 C17          1.6350   -12.3730    -0.8630 cc         1 B48      -0.139000
     17 C18          2.4640   -13.0870    -0.0410 cd         1 B48      -0.220000
     18 S19          3.9910   -12.3250     0.1410 ss         1 B48       0.206000
     19 H1          12.4610    -4.4520    -0.9880 h1         1 B48       0.067700
     20 H1A         11.1680    -4.5470     0.2320 h1         1 B48       0.067700
     21 H1B         11.9550    -6.0380    -0.3520 h1         1 B48       0.067700
     22 H4           7.9730    -6.6550    -3.1600 ha         1 B48       0.155000
     23 H14          5.6610    -6.1010    -2.9500 hc         1 B48       0.057700
     24 H14A         4.9390    -7.2050    -4.1280 hc         1 B48       0.057700
     25 H14B         3.9190    -6.4280    -2.9210 hc         1 B48       0.057700
     26 H16          1.7540   -10.4850    -2.0130 ha         1 B48       0.153000
     27 H17          0.6300   -12.6840    -1.1100 ha         1 B48       0.140000
     28 H18          2.2640   -14.0150     0.4710 h4         1 B48       0.154000
     29 HN6          7.6980    -7.5860     0.9230 hn         1 B48       0.374000
@<TRIPOS>BOND
     1     1     2 1   
     2     1    19 1   
     3     1    20 1   
     4     1    21 1   
     5     2     3 1   
     6     3     4 1   
     7     3     7 2   
     8     4     5 2   
     9     4    22 1   
    10     5     6 1   
    11     5     8 1   
    12     6     7 1   
    13     6    29 1   
    14     8     9 1   
    15     8    12 2   
    16     9    10 1   
    17    10    11 2   
    18    10    14 1   
    19    11    12 1   
    20    12    13 1   
    21    13    23 1   
    22    13    24 1   
    23    13    25 1   
    24    14    15 2   
    25    14    18 1   
    26    15    16 1   
    27    15    26 1   
    28    16    17 2   
    29    16    27 1   
    30    17    18 1   
    31    17    28 1   
@<TRIPOS>SUBSTRUCTURE
     1 B48         1 TEMP              0 ****  ****    0 ROOT
