@<TRIPOS>MOLECULE
B48
   29    31     1     0     0
SMALL
No Charge or Current Charge


@<TRIPOS>ATOM
      1 C1          11.5840    -5.1840    -1.2170 c3         1 B48       0.034900
      2 S2           9.8810    -4.4770    -1.3740 ss         1 B48      -0.359300
      3 C3           8.8800    -5.8230    -0.8580 cc         1 B48       0.361300
      4 C4           7.7380    -6.2670    -1.5300 cc         1 B48      -0.187000
      5 C5           7.3040    -7.3440    -0.8150 cd         1 B48      -0.047000
      6 N6           8.2170    -7.4900     0.2410 na         1 B48      -0.015200
      7 N8           9.2240    -6.5210     0.2030 nd         1 B48      -0.518800
      8 C9           6.1620    -8.2000    -1.0430 cd         1 B48      -0.181000
      9 S10          5.7880    -9.5510     0.0110 ss         1 B48      -0.055400
     10 C11          4.4060    -9.8620    -1.0310 cd         1 B48       0.551900
     11 N12          4.2470    -9.0380    -2.0580 nc         1 B48      -0.649000
     12 C13          5.2410    -8.0900    -2.0730 cc         1 B48       0.339300
     13 C14          5.1840    -7.0840    -3.1890 c3         1 B48      -0.127400
     14 C15          3.5030   -10.9510    -0.7780 cd         1 B48      -0.278500
     15 C16          2.4140   -11.2230    -1.5710 cc         1 B48      -0.071000
     16 C17          1.6790   -12.3460    -1.1150 cc         1 B48      -0.139000
     17 C18          2.1990   -12.9290     0.0150 cd         1 B48      -0.220000
     18 S19          3.6580   -12.0840     0.5710 ss         1 B48       0.206000
     19 H1          12.3230    -4.4470    -1.5550 h1         1 B48       0.067700
     20 H1A         11.7880    -5.4410    -0.1700 h1         1 B48       0.067700
     21 H1B         11.6690    -6.0880    -1.8330 h1         1 B48       0.067700
     22 H4           7.3390    -5.8090    -2.4230 ha         1 B48       0.155000
     23 H14          5.0850    -6.0680    -2.7920 hc         1 B48       0.057700
     24 H14A         6.0830    -7.1420    -3.8110 hc         1 B48       0.057700
     25 H14B         4.3230    -7.2620    -3.8450 hc         1 B48       0.057700
     26 H16          2.1250   -10.6580    -2.4540 ha         1 B48       0.153000
     27 H17          0.7880   -12.6990    -1.6260 ha         1 B48       0.140000
     28 H18          1.8290   -13.7910     0.5570 h4         1 B48       0.154000
     29 HN6          8.1890    -8.2050     0.9660 hn         1 B48       0.374000
@<TRIPOS>BOND
     1     1     2 1   
     2     1    19 1   
     3     1    20 1   
     4     1    21 1   
     5     2     3 1   
     6     3     4 1   
     7     3     7 2   
     8     4     5 2   
     9     4    22 1   
    10     5     6 1   
    11     5     8 1   
    12     6     7 1   
    13     6    29 1   
    14     8     9 1   
    15     8    12 2   
    16     9    10 1   
    17    10    11 2   
    18    10    14 1   
    19    11    12 1   
    20    12    13 1   
    21    13    23 1   
    22    13    24 1   
    23    13    25 1   
    24    14    15 2   
    25    14    18 1   
    26    15    16 1   
    27    15    26 1   
    28    16    17 2   
    29    16    27 1   
    30    17    18 1   
    31    17    28 1   
@<TRIPOS>SUBSTRUCTURE
     1 B48         1 TEMP              0 ****  ****    0 ROOT
