@<TRIPOS>MOLECULE
B49
   56    58     1     0     0
SMALL
bcc


@<TRIPOS>ATOM
      1 C4           0.6730     3.6580    -1.7660 c3         1 B49      -0.039800
      2 C5          -6.9880    -1.4340     1.3250 ca         1 B49      -0.142000
      3 C6          -6.9370    -0.1650     0.7520 ca         1 B49      -0.129000
      4 C7          -4.5660    -1.6320     1.2070 ca         1 B49      -0.126000
      5 C13          0.3910     0.3160    -0.1310 cc         1 B49      -0.044300
      6 C15         -5.8120    -2.1320     1.5390 ca         1 B49       0.110900
      7 C17         -4.5150    -0.3690     0.6360 ca         1 B49      -0.061800
      8 C20         -3.4160     0.4560     0.1640 cc         1 B49      -0.210400
      9 C21         -4.0320     1.6980    -0.3430 c          1 B49       0.727700
     10 C22          2.6610     1.3410    -0.8970 c          1 B49       0.713700
     11 C3           0.8220    -1.0060     0.4120 c3         1 B49      -0.035800
     12 C12         -2.0990     0.1050     0.2000 cf         1 B49       0.079800
     13 C14          0.3590     2.3630    -1.1090 cd         1 B49       0.006400
     14 C16         -5.7000     0.3450     0.4170 ca         1 B49       0.034600
     15 C18         -0.9300     0.7740    -0.2180 cd         1 B49      -0.177100
     16 C19          1.2010     1.3240    -0.6900 cc         1 B49      -0.256600
     17 N23         -0.8910     2.0170    -0.8060 na         1 B49      -0.121100
     18 N24         -5.3750     1.5630    -0.1600 ns         1 B49      -0.452100
     19 N25          3.3900     0.6740     0.0180 ns         1 B49      -0.577900
     20 O27         -3.5040     2.6910    -0.8430 o          1 B49      -0.661500
     21 O28          3.1640     1.9280    -1.8500 o          1 B49      -0.614100
     22 H4           0.9710     3.5090    -2.8030 hc         1 B49       0.062033
     23 H4A         -0.1930     4.3170    -1.7520 hc         1 B49       0.062033
     24 H4B          1.4960     4.1640    -1.2640 hc         1 B49       0.062033
     25 H5          -7.9380    -1.8720     1.6000 ha         1 B49       0.153000
     26 H6          -7.8470     0.3930     0.5770 ha         1 B49       0.144000
     27 H7          -3.6730    -2.2170     1.3890 ha         1 B49       0.151000
     28 H3           1.6040    -1.4500    -0.2020 hc         1 B49       0.045367
     29 H3A          1.2120    -0.9200     1.4290 hc         1 B49       0.045367
     30 H3B         -0.0010    -1.7170     0.4490 hc         1 B49       0.045367
     31 H12         -1.8980    -0.8720     0.6280 ha         1 B49       0.135000
     32 HN23        -1.7450     2.5580    -0.9660 hn         1 B49       0.351700
     33 HN24        -6.0430     2.2700    -0.4250 hn         1 B49       0.343500
     34 HN25         2.9320     0.3630     0.8580 hn         1 B49       0.309500
     35 C37          4.8240     0.5050    -0.0420 c3         1 B49       0.098000
     36 C38          5.2040    -0.9170     0.3610 c3         1 B49       0.153800
     37 N4           6.6440    -1.0880     0.3980 n3         1 B49      -0.729600
     38 C39          7.2120    -0.6180     1.6550 c3         1 B49       0.172800
     39 C40          7.0430    -2.4540     0.0920 c3         1 B49       0.172800
     40 C41          6.9490    -2.7800    -1.3890 c3         1 B49      -0.090100
     41 C42          8.6760    -0.2300     1.5330 c3         1 B49      -0.090100
     42 H14          5.1610     0.6920    -1.0590 h1         1 B49       0.062200
     43 H15          5.3200     1.2380     0.6020 h1         1 B49       0.062200
     44 H16          4.7360    -1.1740     1.3270 h1         1 B49       0.031700
     45 H17          4.7730    -1.5970    -0.3750 h1         1 B49       0.031700
     46 H18          6.6510     0.2620     1.9770 h1         1 B49       0.027450
     47 H19          7.0830    -1.3660     2.4550 h1         1 B49       0.027450
     48 H20          8.0800    -2.5860     0.4040 h1         1 B49       0.027450
     49 H21          6.4580    -3.1830     0.6770 h1         1 B49       0.027450
     50 H22          7.2730    -3.8050    -1.5720 hc         1 B49       0.037867
     51 H23          5.9320    -2.6900    -1.7740 hc         1 B49       0.037867
     52 H24          7.5880    -2.1150    -1.9700 hc         1 B49       0.037867
     53 H25          8.8010     0.5680     0.8000 hc         1 B49       0.037867
     54 H26          9.0560     0.1250     2.4910 hc         1 B49       0.037867
     55 H27          9.3030    -1.0670     1.2250 hc         1 B49       0.037867
     56 F29         -5.8830    -3.3580     2.0920 f          1 B49      -0.144900
@<TRIPOS>BOND
     1     1    13 1   
     2     1    22 1   
     3     1    23 1   
     4     1    24 1   
     5     2     3 ar  
     6     2     6 ar  
     7     2    25 1   
     8     3    14 ar  
     9     3    26 1   
    10     4     6 ar  
    11     4     7 ar  
    12     4    27 1   
    13     5    11 1   
    14     5    15 2   
    15     5    16 1   
    16     6    56 1   
    17     7     8 1   
    18     7    14 ar  
    19     8     9 1   
    20     8    12 2   
    21     9    18 1   
    22     9    20 2   
    23    10    16 1   
    24    10    19 1   
    25    10    21 2   
    26    11    28 1   
    27    11    29 1   
    28    11    30 1   
    29    12    15 1   
    30    12    31 1   
    31    13    16 2   
    32    13    17 1   
    33    14    18 1   
    34    15    17 1   
    35    17    32 1   
    36    18    33 1   
    37    19    34 1   
    38    19    35 1   
    39    35    36 1   
    40    35    42 1   
    41    35    43 1   
    42    36    37 1   
    43    36    44 1   
    44    36    45 1   
    45    37    38 1   
    46    37    39 1   
    47    38    41 1   
    48    38    46 1   
    49    38    47 1   
    50    39    40 1   
    51    39    48 1   
    52    39    49 1   
    53    40    50 1   
    54    40    51 1   
    55    40    52 1   
    56    41    53 1   
    57    41    54 1   
    58    41    55 1   
@<TRIPOS>SUBSTRUCTURE
     1 B49         1 TEMP              0 ****  ****    0 ROOT
