@<TRIPOS>MOLECULE
B49
   56    58     1     0     0
SMALL
No Charge or Current Charge


@<TRIPOS>ATOM
      1 C4           0.6520     4.1010    -1.2150 c3         1 B49      -0.039800
      2 C5          -7.0720    -1.7230     0.9150 ca         1 B49      -0.124000
      3 C6          -7.0570    -0.3810     0.4780 ca         1 B49      -0.111000
      4 C7          -4.6120    -1.8060     0.8670 ca         1 B49      -0.108000
      5 C13          0.3500     0.5310    -0.0460 cc         1 B49      -0.044300
      6 C15         -5.8580    -2.4260     1.1060 ca         1 B49       0.146000
      7 C17         -4.6150    -0.4700     0.4320 ca         1 B49      -0.061800
      8 C20         -3.5130     0.4400     0.1020 cc         1 B49      -0.210400
      9 C21         -4.1450     1.7340    -0.2990 c          1 B49       0.585200
     10 C22          2.6670     1.7400    -0.5100 c          1 B49       0.646700
     11 C3           0.8600    -0.8310     0.3800 c3         1 B49      -0.035800
     12 C12         -2.1770     0.1250     0.1640 cf         1 B49       0.029800
     13 C14          0.3430     2.6980    -0.7500 cd         1 B49      -0.044300
     14 C16         -5.8080     0.2060     0.2490 ca         1 B49       0.034600
     15 C18         -0.9710     0.9210    -0.1320 cd         1 B49      -0.227800
     16 C19          1.1710     1.6450    -0.4330 cc         1 B49      -0.256600
     17 N23         -0.9580     2.2470    -0.5630 na         1 B49      -0.070000
     18 N24         -5.4850     1.4890    -0.1780 ns         1 B49      -0.385100
     19 N25          3.3590     0.6070    -0.1620 ns         1 B49      -0.510900
     20 O27         -3.6420     2.7890    -0.6570 o          1 B49      -0.586000
     21 O28          3.2710     2.7460    -0.8550 o          1 B49      -0.614100
     22 H4           1.2050     4.0890    -2.1610 hc         1 B49       0.062033
     23 H4A         -0.2630     4.6830    -1.3760 hc         1 B49       0.062033
     24 H4B          1.2570     4.6370    -0.4740 hc         1 B49       0.062033
     25 H5          -8.0180    -2.2230     1.1070 ha         1 B49       0.135000
     26 H6          -7.9790     0.1750     0.3260 ha         1 B49       0.126000
     27 H7          -3.6890    -2.3580     1.0170 ha         1 B49       0.133000
     28 H3           1.4390    -1.3030    -0.4220 hc         1 B49       0.045367
     29 H3A          1.4900    -0.7520     1.2740 hc         1 B49       0.045367
     30 H3B          0.0530    -1.5250     0.6300 hc         1 B49       0.045367
     31 H12         -1.9950    -0.8960     0.4900 ha         1 B49       0.185000
     32 HN23        -1.7990     2.8040    -0.7180 hn         1 B49       0.402000
     33 HN24        -6.1790     2.1960    -0.3860 hn         1 B49       0.343500
     34 HN25         2.8070    -0.1910     0.1120 hn         1 B49       0.309500
     35 C37          4.8220     0.4870    -0.1700 c3         1 B49       0.098000
     36 C38          5.3010    -0.8970     0.3390 c3         1 B49       0.153800
     37 N4           6.7650    -1.1700     0.2070 n3         1 B49      -0.729600
     38 C39          7.5990    -0.1880     0.9600 c3         1 B49       0.172800
     39 C40          7.1160    -2.5840     0.5260 c3         1 B49       0.172800
     40 C41          6.4440    -3.6490    -0.3670 c3         1 B49      -0.090100
     41 C42          9.1170    -0.2700     0.6920 c3         1 B49      -0.090100
     42 H14          5.1810     0.6380    -1.1960 h1         1 B49       0.062200
     43 H15          5.2350     1.2830     0.4620 h1         1 B49       0.062200
     44 H16          4.9960    -1.0040     1.3900 h1         1 B49       0.031700
     45 H17          4.7340    -1.6400    -0.2340 h1         1 B49       0.031700
     46 H18          7.3020     0.8340     0.6910 h1         1 B49       0.027450
     47 H19          7.4270    -0.2960     2.0390 h1         1 B49       0.027450
     48 H20          8.1960    -2.7340     0.4080 h1         1 B49       0.027450
     49 H21          6.8770    -2.8050     1.5750 h1         1 B49       0.027450
     50 H22          6.8930    -4.6310    -0.1790 hc         1 B49       0.037867
     51 H23          5.3720    -3.7310    -0.1580 hc         1 B49       0.037867
     52 H24          6.5820    -3.4080    -1.4280 hc         1 B49       0.037867
     53 H25          9.3210    -0.2590    -0.3850 hc         1 B49       0.037867
     54 H26          9.6230     0.5910     1.1450 hc         1 B49       0.037867
     55 H27          9.5540    -1.1760     1.1270 hc         1 B49       0.037867
     56 F29         -5.8920    -3.7100     1.5240 f          1 B49      -0.180000
@<TRIPOS>BOND
     1     1    13 1   
     2     1    22 1   
     3     1    23 1   
     4     1    24 1   
     5     2     3 ar  
     6     2     6 ar  
     7     2    25 1   
     8     3    14 ar  
     9     3    26 1   
    10     4     6 ar  
    11     4     7 ar  
    12     4    27 1   
    13     5    11 1   
    14     5    15 2   
    15     5    16 1   
    16     6    56 1   
    17     7     8 1   
    18     7    14 ar  
    19     8     9 1   
    20     8    12 2   
    21     9    18 1   
    22     9    20 2   
    23    10    16 1   
    24    10    19 1   
    25    10    21 2   
    26    11    28 1   
    27    11    29 1   
    28    11    30 1   
    29    12    15 1   
    30    12    31 1   
    31    13    16 2   
    32    13    17 1   
    33    14    18 1   
    34    15    17 1   
    35    17    32 1   
    36    18    33 1   
    37    19    34 1   
    38    19    35 1   
    39    35    36 1   
    40    35    42 1   
    41    35    43 1   
    42    36    37 1   
    43    36    44 1   
    44    36    45 1   
    45    37    38 1   
    46    37    39 1   
    47    38    41 1   
    48    38    46 1   
    49    38    47 1   
    50    39    40 1   
    51    39    48 1   
    52    39    49 1   
    53    40    50 1   
    54    40    51 1   
    55    40    52 1   
    56    41    53 1   
    57    41    54 1   
    58    41    55 1   
@<TRIPOS>SUBSTRUCTURE
     1 B49         1 TEMP              0 ****  ****    0 ROOT
