@<TRIPOS>MOLECULE
B4A
   63    67     1     0     0
SMALL
No Charge or Current Charge


@<TRIPOS>ATOM
      1 N12          6.8960     0.6650     0.9220 ns         1 B4A      -0.491400
      2 C13          7.8900     1.0270     0.0420 c          1 B4A       0.609100
      3 C15          9.6250    -0.7310    -0.4460 ca         1 B4A      -0.083300
      4 C17          9.6250    -3.1510    -0.7680 ca         1 B4A      -0.109500
      5 C20         10.2490    -0.5750    -1.6990 ca         1 B4A      -0.090000
      6 C26         -5.1510     0.6310     0.0410 cc         1 B4A       0.506300
      7 C28         -7.5580     0.9260    -0.4940 c          1 B4A       0.609100
      8 C01         -0.2160     2.2510     2.1620 c6         1 B4A      -0.100900
      9 C02         -1.0640     1.0210     2.5650 c6         1 B4A       0.218300
     10 N03         -1.6560     0.4000     1.3510 nh         1 B4A      -0.758300
     11 C04         -0.6280    -0.0650     0.3820 c6         1 B4A       0.218300
     12 C05          0.2080     1.1410    -0.1000 c6         1 B4A      -0.100900
     13 C06          0.8430     1.9140     1.0830 c6         1 B4A       0.241500
     14 C08          3.2410     1.1740     1.2400 cc         1 B4A       0.689300
     15 N09          3.6110     1.8090     0.1440 nd         1 B4A      -0.412000
     16 N10          4.9710     1.6830    -0.0700 nd         1 B4A      -0.284000
     17 C11          5.5530     0.9570     0.8750 cc         1 B4A       0.527300
     18 C14          9.2830     0.4920     0.4000 c3         1 B4A      -0.108100
     19 C16          9.3140    -2.0260     0.0150 ca         1 B4A      -0.090000
     20 C18         10.2490    -2.9890    -2.0170 ca         1 B4A      -0.101000
     21 C19         10.5600    -1.7000    -2.4820 ca         1 B4A      -0.109500
     22 O21          7.6990     1.7050    -0.9560 o          1 B4A      -0.525100
     23 S22          4.4890     0.3670     2.1080 ss         1 B4A      -0.386800
     24 C23         -2.9920     0.5530     1.0180 cc         1 B4A       0.694300
     25 N24         -3.8880     1.0740     1.8410 nd         1 B4A      -0.423000
     26 N25         -5.1470     1.1200     1.2720 nd         1 B4A      -0.273000
     27 C29         -8.5500     0.6600    -1.6330 c3         1 B4A      -0.108100
     28 C30         -9.3540    -0.6080    -1.3610 ca         1 B4A      -0.077300
     29 C31        -10.5580    -0.5420    -0.6320 ca         1 B4A      -0.090000
     30 C32        -11.2970    -1.7110    -0.3760 ca         1 B4A      -0.109500
     31 C33        -10.8370    -2.9520    -0.8480 ca         1 B4A      -0.102000
     32 C34         -9.6370    -3.0230    -1.5750 ca         1 B4A      -0.109500
     33 C35         -8.8970    -1.8550    -1.8310 ca         1 B4A      -0.090000
     34 O36         -7.9120     1.4200     0.5660 o          1 B4A      -0.539100
     35 S37         -3.6170     0.0720    -0.5290 ss         1 B4A      -0.361800
     36 H1           7.2040     0.0980     1.6990 hn         1 B4A       0.331500
     37 H2           9.3830    -4.1480    -0.4070 ha         1 B4A       0.114000
     38 H3          10.4920     0.4190    -2.0700 ha         1 B4A       0.112500
     39 H4          -0.8880     3.0260     1.7700 hc         1 B4A       0.068700
     40 H5           0.2650     2.6870     3.0480 hc         1 B4A       0.068700
     41 H6          -0.4270     0.2900     3.0830 h1         1 B4A       0.058200
     42 H7          -1.8320     1.3310     3.2890 h1         1 B4A       0.058200
     43 H8           0.0380    -0.7930     0.8680 h1         1 B4A       0.058200
     44 H9          -1.0650    -0.5800    -0.4840 h1         1 B4A       0.058200
     45 H10          0.9840     0.8050    -0.8000 hc         1 B4A       0.068700
     46 H11         -0.4430     1.8200    -0.6670 hc         1 B4A       0.068700
     47 H12          1.2340     2.8690     0.6960 h1         1 B4A       0.073700
     48 H13          1.8320     0.6890     2.5770 hn         1 B4A       0.499000
     49 H14         10.0190     1.2830     0.2140 hc         1 B4A       0.064700
     50 H15          9.3150     0.2140     1.4600 hc         1 B4A       0.064700
     51 H16          8.8310    -2.1630     0.9800 ha         1 B4A       0.112500
     52 H17         10.4890    -3.8600    -2.6230 ha         1 B4A       0.113000
     53 H18         11.0420    -1.5730    -3.4490 ha         1 B4A       0.114000
     54 H19         -6.1210     0.1510    -1.6830 hn         1 B4A       0.332500
     55 H20         -9.2310     1.5150    -1.7110 hc         1 B4A       0.065200
     56 H21         -8.0100     0.5440    -2.5800 hc         1 B4A       0.065200
     57 H22        -10.9210     0.4140    -0.2600 ha         1 B4A       0.111000
     58 H23        -12.2250    -1.6540     0.1880 ha         1 B4A       0.113000
     59 H24        -11.4090    -3.8560    -0.6500 ha         1 B4A       0.112000
     60 H25         -9.2790    -3.9840    -1.9400 ha         1 B4A       0.113000
     61 H26         -7.9690    -1.9230    -2.3940 ha         1 B4A       0.111000
     62 N07          1.9480     1.1380     1.6730 nu         1 B4A      -0.920100
     63 N27         -6.2620     0.5500    -0.7660 ns         1 B4A      -0.495400
@<TRIPOS>BOND
     1     1     2 1   
     2     1    17 1   
     3     1    36 1   
     4     2    18 1   
     5     2    22 2   
     6     3     5 ar  
     7     3    18 1   
     8     3    19 ar  
     9     4    19 ar  
    10     4    20 ar  
    11     4    37 1   
    12     5    21 ar  
    13     5    38 1   
    14     6    26 2   
    15     6    35 1   
    16     6    63 1   
    17     7    27 1   
    18     7    34 2   
    19     7    63 1   
    20     8     9 1   
    21     8    13 1   
    22     8    39 1   
    23     8    40 1   
    24     9    10 1   
    25     9    41 1   
    26     9    42 1   
    27    10    11 1   
    28    10    24 1   
    29    11    12 1   
    30    11    43 1   
    31    11    44 1   
    32    12    13 1   
    33    12    45 1   
    34    12    46 1   
    35    13    47 1   
    36    13    62 1   
    37    14    15 2   
    38    14    23 1   
    39    14    62 1   
    40    15    16 1   
    41    16    17 2   
    42    17    23 1   
    43    18    49 1   
    44    18    50 1   
    45    19    51 1   
    46    20    21 ar  
    47    20    52 1   
    48    21    53 1   
    49    24    25 2   
    50    24    35 1   
    51    25    26 1   
    52    27    28 1   
    53    27    55 1   
    54    27    56 1   
    55    28    29 ar  
    56    28    33 ar  
    57    29    30 ar  
    58    29    57 1   
    59    30    31 ar  
    60    30    58 1   
    61    31    32 ar  
    62    31    59 1   
    63    32    33 ar  
    64    32    60 1   
    65    33    61 1   
    66    48    62 1   
    67    54    63 1   
@<TRIPOS>SUBSTRUCTURE
     1 B4A         1 TEMP              0 ****  ****    0 ROOT
