@<TRIPOS>MOLECULE
B4A
   63    67     1     0     0
SMALL
bcc


@<TRIPOS>ATOM
      1 N12          5.9100    -0.9860     0.8100 ns         1 B4A      -0.558400
      2 C13          7.2130    -0.6100     0.6220 c          1 B4A       0.676100
      3 C15          9.3100    -1.7040    -0.1750 ca         1 B4A      -0.083300
      4 C17         10.2100    -2.4500    -2.2900 ca         1 B4A      -0.127500
      5 C20         10.4240    -0.8860    -0.0100 ca         1 B4A      -0.108000
      6 C26         -5.2040     1.2960    -0.3220 cc         1 B4A       0.506300
      7 C28         -6.9950    -0.2910    -0.5990 c          1 B4A       0.676100
      8 C01          0.0340     3.4890     1.5660 c6         1 B4A      -0.100900
      9 C02         -1.1780     2.5880     1.7500 c6         1 B4A       0.218300
     10 N03         -1.6700     2.1140     0.4630 nh         1 B4A      -0.758300
     11 C04         -0.6830     1.4880    -0.4060 c6         1 B4A       0.218300
     12 C05          0.5170     2.3970    -0.6080 c6         1 B4A      -0.100900
     13 C06          1.1240     2.8470     0.7170 c6         1 B4A       0.241500
     14 C08          2.8670     1.1720     1.0690 cc         1 B4A       0.689300
     15 N09          3.5250     1.4890    -0.0080 nd         1 B4A      -0.412000
     16 N10          4.6310     0.7350    -0.1930 nd         1 B4A      -0.284000
     17 C11          4.8350    -0.1220     0.7380 cc         1 B4A       0.527300
     18 C14          8.2130    -1.7280     0.8500 c3         1 B4A      -0.108100
     19 C16          9.2130    -2.4850    -1.3240 ca         1 B4A      -0.108000
     20 C18         11.3170    -1.6290    -2.1180 ca         1 B4A      -0.119000
     21 C19         11.4220    -0.8490    -0.9740 ca         1 B4A      -0.127500
     22 O21          7.5410     0.5160     0.3260 o          1 B4A      -0.525100
     23 S22          3.6190    -0.1020     1.9910 ss         1 B4A      -0.386800
     24 C23         -2.9780     1.8370     0.3380 cc         1 B4A       0.694300
     25 N24         -3.8830     2.1190     1.2400 nd         1 B4A      -0.423000
     26 N25         -5.1330     1.8240     0.8440 nd         1 B4A      -0.273000
     27 C29         -8.1900    -0.6180    -1.4740 c3         1 B4A      -0.108100
     28 C30         -9.1270    -1.5920    -0.8250 ca         1 B4A      -0.077300
     29 C31        -10.2370    -1.1410    -0.1190 ca         1 B4A      -0.108000
     30 C32        -11.1000    -2.0390     0.4960 ca         1 B4A      -0.127500
     31 C33        -10.8590    -3.4040     0.4110 ca         1 B4A      -0.120000
     32 C34         -9.7520    -3.8640    -0.2910 ca         1 B4A      -0.127500
     33 C35         -8.8930    -2.9620    -0.9030 ca         1 B4A      -0.108000
     34 O36         -6.5990    -1.0030     0.2960 o          1 B4A      -0.539100
     35 S37         -3.6520     1.1030    -1.0910 ss         1 B4A      -0.361800
     36 H1           5.7230    -1.9400     1.0820 hn         1 B4A       0.331500
     37 H2          10.1220    -3.0640    -3.1770 ha         1 B4A       0.132000
     38 H3          10.5160    -0.2800     0.8830 ha         1 B4A       0.130500
     39 H4          -0.2730     4.4130     1.0730 hc         1 B4A       0.068700
     40 H5           0.4230     3.7660     2.5480 hc         1 B4A       0.068700
     41 H6          -0.9410     1.7320     2.3930 h1         1 B4A       0.058200
     42 H7          -1.9690     3.1430     2.2470 h1         1 B4A       0.058200
     43 H8          -0.3740     0.5240     0.0130 h1         1 B4A       0.058200
     44 H9          -1.1260     1.2860    -1.3810 h1         1 B4A       0.058200
     45 H10          1.2570     1.8780    -1.2170 hc         1 B4A       0.068700
     46 H11          0.2090     3.2860    -1.1640 hc         1 B4A       0.068700
     47 H12          1.9040     3.5890     0.5200 h1         1 B4A       0.073700
     48 H13          1.4280     1.6050     2.4090 hn         1 B4A       0.443800
     49 H14          8.6230    -1.5780     1.8530 hc         1 B4A       0.064700
     50 H15          7.7170    -2.7000     0.8600 hc         1 B4A       0.064700
     51 H16          8.3530    -3.1300    -1.4640 ha         1 B4A       0.130500
     52 H17         12.0960    -1.6020    -2.8690 ha         1 B4A       0.131000
     53 H18         12.2850    -0.2110    -0.8300 ha         1 B4A       0.132000
     54 H19         -6.7190     1.4110    -1.7200 hn         1 B4A       0.332500
     55 H20         -8.7120     0.3020    -1.7460 hc         1 B4A       0.065200
     56 H21         -7.7950    -1.0290    -2.4090 hc         1 B4A       0.065200
     57 H22        -10.4350    -0.0770    -0.0510 ha         1 B4A       0.129000
     58 H23        -11.9620    -1.6720     1.0370 ha         1 B4A       0.131000
     59 H24        -11.5330    -4.1060     0.8860 ha         1 B4A       0.130000
     60 H25         -9.5580    -4.9260    -0.3640 ha         1 B4A       0.131000
     61 H26         -8.0350    -3.3300    -1.4530 ha         1 B4A       0.129000
     62 N07          1.7050     1.7270     1.4480 nu         1 B4A      -0.864900
     63 N27         -6.3770     0.8810    -0.9320 ns         1 B4A      -0.562400
@<TRIPOS>BOND
     1     1     2 1   
     2     1    17 1   
     3     1    36 1   
     4     2    18 1   
     5     2    22 2   
     6     3     5 ar  
     7     3    18 1   
     8     3    19 ar  
     9     4    19 ar  
    10     4    20 ar  
    11     4    37 1   
    12     5    21 ar  
    13     5    38 1   
    14     6    26 2   
    15     6    35 1   
    16     6    63 1   
    17     7    27 1   
    18     7    34 2   
    19     7    63 1   
    20     8     9 1   
    21     8    13 1   
    22     8    39 1   
    23     8    40 1   
    24     9    10 1   
    25     9    41 1   
    26     9    42 1   
    27    10    11 1   
    28    10    24 1   
    29    11    12 1   
    30    11    43 1   
    31    11    44 1   
    32    12    13 1   
    33    12    45 1   
    34    12    46 1   
    35    13    47 1   
    36    13    62 1   
    37    14    15 2   
    38    14    23 1   
    39    14    62 1   
    40    15    16 1   
    41    16    17 2   
    42    17    23 1   
    43    18    49 1   
    44    18    50 1   
    45    19    51 1   
    46    20    21 ar  
    47    20    52 1   
    48    21    53 1   
    49    24    25 2   
    50    24    35 1   
    51    25    26 1   
    52    27    28 1   
    53    27    55 1   
    54    27    56 1   
    55    28    29 ar  
    56    28    33 ar  
    57    29    30 ar  
    58    29    57 1   
    59    30    31 ar  
    60    30    58 1   
    61    31    32 ar  
    62    31    59 1   
    63    32    33 ar  
    64    32    60 1   
    65    33    61 1   
    66    48    62 1   
    67    54    63 1   
@<TRIPOS>SUBSTRUCTURE
     1 B4A         1 TEMP              0 ****  ****    0 ROOT
