@<TRIPOS>MOLECULE
B4B
   53    58     1     0     0
SMALL
No Charge or Current Charge


@<TRIPOS>ATOM
      1 C01          8.2260     1.4980     1.0270 c6         1 B4B       0.149300
      2 C02          6.7280     1.6400     0.5910 c6         1 B4B       0.201300
      3 N03          6.1500     0.3510     0.0830 nh         1 B4B      -0.792400
      4 C04          7.0250    -0.3200    -0.9350 c6         1 B4B       0.201300
      5 C05          8.5180    -0.4260    -0.4710 c6         1 B4B       0.149300
      6 N06          9.0850     0.8790    -0.0240 n7         1 B4B      -0.859400
      7 C07          4.7530     0.1270     0.0700 ca         1 B4B       0.318000
      8 C08          3.8360     1.1900     0.0130 ca         1 B4B      -0.168000
      9 C09          2.4510     0.9490     0.0030 ca         1 B4B      -0.062000
     10 C10          1.9350    -0.3680     0.0470 ca         1 B4B      -0.079000
     11 C11          2.8690    -1.4320     0.1130 ca         1 B4B      -0.062000
     12 C12          4.2520    -1.1830     0.1240 ca         1 B4B      -0.168000
     13 C13          0.4680    -0.5970     0.0370 cc         1 B4B      -0.118000
     14 C14         -0.5060     0.4610     0.3000 cc         1 B4B       0.377900
     15 N15         -1.8350     0.3630     0.2780 nd         1 B4B      -0.631000
     16 C16         -2.1630    -0.9210    -0.1040 cd         1 B4B       0.372500
     17 C17         -3.4330    -1.4240    -0.1590 cc         1 B4B      -0.229800
     18 C18         -3.2370    -2.8260    -0.3170 cc         1 B4B       0.398500
     19 N19         -1.9770    -3.2230    -0.4810 nd         1 B4B      -0.574100
     20 N20         -1.3450    -2.0060    -0.3610 na         1 B4B       0.123900
     21 C21          0.0380    -1.8820    -0.3150 cd         1 B4B      -0.045000
     22 C22         -4.6440    -0.7030     0.2640 ca         1 B4B       0.025200
     23 C23         -5.4910    -1.3540     1.1820 ca         1 B4B      -0.106000
     24 C24         -6.6330    -0.7160     1.6860 ca         1 B4B      -0.103000
     25 C25         -6.9550     0.5790     1.2600 ca         1 B4B      -0.083000
     26 C26         -6.1690     1.2410     0.3020 ca         1 B4B       0.267000
     27 C27         -5.0140     0.5870    -0.2160 ca         1 B4B      -0.062000
     28 C28         -4.3050     1.2300    -1.2560 ca         1 B4B      -0.041000
     29 C29         -4.7200     2.5000    -1.6810 ca         1 B4B      -0.177000
     30 C30         -5.8360     3.0900    -1.0770 ca         1 B4B       0.352900
     31 N31         -6.5550     2.4720    -0.1140 nb         1 B4B      -0.667000
     32 H1           8.6230     2.4900     1.2910 h1         1 B4B       0.040450
     33 H2           8.2680     0.8780     1.9350 h1         1 B4B       0.040450
     34 H3           6.1520     2.0010     1.4560 h1         1 B4B       0.045950
     35 H4           6.6610     2.4100    -0.1920 h1         1 B4B       0.045950
     36 H5           6.6620    -1.3340    -1.1580 h1         1 B4B       0.045950
     37 H6           6.9900     0.2460    -1.8770 h1         1 B4B       0.045950
     38 H7           8.5750    -1.1460     0.3600 h1         1 B4B       0.040450
     39 H8           9.1260    -0.8300    -1.2940 h1         1 B4B       0.040450
     40 H9          10.0270     0.7230     0.3590 hn         1 B4B       0.416000
     41 H11          4.1890     2.2150    -0.0410 ha         1 B4B       0.117500
     42 H12          1.7920     1.8090    -0.0670 ha         1 B4B       0.112000
     43 H13          2.5490    -2.4660     0.1910 ha         1 B4B       0.112000
     44 H14          4.9400    -2.0200     0.1940 ha         1 B4B       0.117500
     45 H15         -0.1900     1.4560     0.5770 h4         1 B4B       0.034100
     46 H16         -4.0090    -3.5840    -0.3060 h4         1 B4B       0.052800
     47 H17          0.6270    -2.7550    -0.5610 h4         1 B4B       0.165000
     48 H18         -5.2440    -2.3490     1.5450 ha         1 B4B       0.114000
     49 H19         -7.2630    -1.2220     2.4140 ha         1 B4B       0.115000
     50 H20         -7.8390     1.0690     1.6580 ha         1 B4B       0.130000
     51 H21         -3.4590     0.7590    -1.7490 ha         1 B4B       0.123000
     52 H22         -4.1900     3.0220    -2.4720 ha         1 B4B       0.120000
     53 H23         -6.1810     4.0760    -1.3850 h4         1 B4B       0.015100
@<TRIPOS>BOND
     1     1     2 1   
     2     1     6 1   
     3     1    32 1   
     4     1    33 1   
     5     2     3 1   
     6     2    34 1   
     7     2    35 1   
     8     3     4 1   
     9     3     7 1   
    10     4     5 1   
    11     4    36 1   
    12     4    37 1   
    13     5     6 1   
    14     5    38 1   
    15     5    39 1   
    16     6    40 1   
    17     7     8 ar  
    18     7    12 ar  
    19     8     9 ar  
    20     8    41 1   
    21     9    10 ar  
    22     9    42 1   
    23    10    11 ar  
    24    10    13 1   
    25    11    12 ar  
    26    11    43 1   
    27    12    44 1   
    28    13    14 1   
    29    13    21 2   
    30    14    15 2   
    31    14    45 1   
    32    15    16 1   
    33    16    17 2   
    34    16    20 1   
    35    17    18 1   
    36    17    22 1   
    37    18    19 2   
    38    18    46 1   
    39    19    20 1   
    40    20    21 1   
    41    21    47 1   
    42    22    23 ar  
    43    22    27 ar  
    44    23    24 ar  
    45    23    48 1   
    46    24    25 ar  
    47    24    49 1   
    48    25    26 ar  
    49    25    50 1   
    50    26    27 ar  
    51    26    31 ar  
    52    27    28 ar  
    53    28    29 ar  
    54    28    51 1   
    55    29    30 ar  
    56    29    52 1   
    57    30    31 ar  
    58    30    53 1   
@<TRIPOS>SUBSTRUCTURE
     1 B4B         1 TEMP              0 ****  ****    0 ROOT
