@<TRIPOS>MOLECULE
B4B
   53    58     1     0     0
SMALL
bcc


@<TRIPOS>ATOM
      1 C01          8.1680     1.7230     0.5200 c6         1 B4B       0.149300
      2 C02          6.7210     1.6480     0.0690 c6         1 B4B       0.201300
      3 N03          6.2150     0.2930     0.1950 nh         1 B4B      -0.654000
      4 C04          7.0660    -0.6900    -0.4680 c6         1 B4B       0.201300
      5 C05          8.5040    -0.5630    -0.0040 c6         1 B4B       0.149300
      6 N06          8.9720     0.7870    -0.2380 n7         1 B4B      -0.804200
      7 C07          4.8420     0.1000     0.1410 ca         1 B4B       0.179600
      8 C08          3.9430     1.1510    -0.0880 ca         1 B4B      -0.186000
      9 C09          2.5740     0.9350    -0.1030 ca         1 B4B      -0.080000
     10 C10          2.0320    -0.3310     0.0960 ca         1 B4B      -0.079000
     11 C11          2.9250    -1.3800     0.3290 ca         1 B4B      -0.080000
     12 C12          4.2890    -1.1750     0.3530 ca         1 B4B      -0.186000
     13 C13          0.5820    -0.5560     0.0480 cc         1 B4B      -0.183300
     14 C14         -0.3370     0.4060     0.5620 cc         1 B4B       0.443200
     15 N15         -1.6320     0.2690     0.5470 nd         1 B4B      -0.631000
     16 C16         -2.1290    -0.8550     0.0130 cd         1 B4B       0.372500
     17 C17         -3.4240    -1.3340    -0.1610 cc         1 B4B      -0.229800
     18 C18         -3.2340    -2.5910    -0.7510 cc         1 B4B       0.398500
     19 N19         -1.9600    -2.8910    -0.9520 nd         1 B4B      -0.574100
     20 N20         -1.2950    -1.8370    -0.4840 na         1 B4B       0.073200
     21 C21          0.0480    -1.6950    -0.4820 cd         1 B4B      -0.012300
     22 C22         -4.6920    -0.7340     0.2560 ca         1 B4B       0.025200
     23 C23         -5.5640    -1.4720     1.0240 ca         1 B4B      -0.124000
     24 C24         -6.7930    -0.9410     1.4560 ca         1 B4B      -0.121000
     25 C25         -7.1490     0.3380     1.1340 ca         1 B4B      -0.166300
     26 C26         -6.2930     1.1300     0.3370 ca         1 B4B       0.397600
     27 C27         -5.0630     0.5890    -0.1230 ca         1 B4B      -0.127300
     28 C28         -4.2840     1.4040    -0.9760 ca         1 B4B      -0.059000
     29 C29         -4.7150     2.6620    -1.2860 ca         1 B4B      -0.260300
     30 C30         -5.9330     3.1140    -0.7420 ca         1 B4B       0.418200
     31 N31         -6.6970     2.3870     0.0270 nb         1 B4B      -0.667000
     32 H1           8.5300     2.7390     0.3510 h1         1 B4B       0.040450
     33 H2           8.2090     1.5380     1.6050 h1         1 B4B       0.040450
     34 H3           6.1330     2.3150     0.6990 h1         1 B4B       0.045950
     35 H4           6.6400     2.0130    -0.9660 h1         1 B4B       0.045950
     36 H5           6.7220    -1.6980    -0.2460 h1         1 B4B       0.045950
     37 H6           7.0190    -0.5610    -1.5590 h1         1 B4B       0.045950
     38 H7           8.5610    -0.8580     1.0560 h1         1 B4B       0.040450
     39 H8           9.1150    -1.2680    -0.5720 h1         1 B4B       0.040450
     40 H9           9.9430     0.8680     0.0330 hn         1 B4B       0.360800
     41 H11          4.2980     2.1530    -0.2850 ha         1 B4B       0.135500
     42 H12          1.9260     1.7780    -0.3100 ha         1 B4B       0.130000
     43 H13          2.5500    -2.3770     0.5270 ha         1 B4B       0.130000
     44 H14          4.9280    -2.0200     0.5700 ha         1 B4B       0.135500
     45 H15          0.0480     1.3130     1.0150 h4         1 B4B       0.034100
     46 H16         -4.0020    -3.2890    -1.0480 h4         1 B4B       0.052800
     47 H17          0.6190    -2.5020    -0.9200 h4         1 B4B       0.183000
     48 H18         -5.2900    -2.4760     1.3220 ha         1 B4B       0.132000
     49 H19         -7.4490    -1.5530     2.0620 ha         1 B4B       0.133000
     50 H20         -8.0830     0.7660     1.4730 ha         1 B4B       0.148000
     51 H21         -3.3610     1.0300    -1.3950 ha         1 B4B       0.141000
     52 H22         -4.1450     3.3060    -1.9410 ha         1 B4B       0.138000
     53 H23         -6.2800     4.1170    -0.9690 h4         1 B4B       0.015100
@<TRIPOS>BOND
     1     1     2 1   
     2     1     6 1   
     3     1    32 1   
     4     1    33 1   
     5     2     3 1   
     6     2    34 1   
     7     2    35 1   
     8     3     4 1   
     9     3     7 1   
    10     4     5 1   
    11     4    36 1   
    12     4    37 1   
    13     5     6 1   
    14     5    38 1   
    15     5    39 1   
    16     6    40 1   
    17     7     8 ar  
    18     7    12 ar  
    19     8     9 ar  
    20     8    41 1   
    21     9    10 ar  
    22     9    42 1   
    23    10    11 ar  
    24    10    13 1   
    25    11    12 ar  
    26    11    43 1   
    27    12    44 1   
    28    13    14 1   
    29    13    21 2   
    30    14    15 2   
    31    14    45 1   
    32    15    16 1   
    33    16    17 2   
    34    16    20 1   
    35    17    18 1   
    36    17    22 1   
    37    18    19 2   
    38    18    46 1   
    39    19    20 1   
    40    20    21 1   
    41    21    47 1   
    42    22    23 ar  
    43    22    27 ar  
    44    23    24 ar  
    45    23    48 1   
    46    24    25 ar  
    47    24    49 1   
    48    25    26 ar  
    49    25    50 1   
    50    26    27 ar  
    51    26    31 ar  
    52    27    28 ar  
    53    28    29 ar  
    54    28    51 1   
    55    29    30 ar  
    56    29    52 1   
    57    30    31 ar  
    58    30    53 1   
@<TRIPOS>SUBSTRUCTURE
     1 B4B         1 TEMP              0 ****  ****    0 ROOT
