@<TRIPOS>MOLECULE
B4C
   97   100     1     0     0
SMALL
No Charge or Current Charge


@<TRIPOS>ATOM
      1 C10          9.1130    -0.8180    -4.3520 ca         1 B4C      -0.116000
      2 C12          8.7750     1.5740    -4.6390 ca         1 B4C      -0.116000
      3 C21          0.5750    -7.3970     4.1650 ca         1 B4C      -0.112000
      4 C28         -2.6300     3.0390     2.4920 c3         1 B4C      -0.079400
      5 C26         -3.1060     1.7500     0.3060 c3         1 B4C      -0.093400
      6 C25         -3.3010     0.3690    -0.3810 c3         1 B4C       0.088700
      7 C24         -2.0270    -1.8150    -0.2730 c          1 B4C       0.581100
      8 C23          0.3650    -6.6930     1.8440 ca         1 B4C      -0.106000
      9 C13          8.0750     1.6210    -3.4200 ca         1 B4C      -0.083500
     10 C14          1.4430    -1.0660    -0.6820 c          1 B4C       0.587100
     11 C19          0.9640    -5.0720     3.5560 ca         1 B4C      -0.106000
     12 C18          0.6970    -5.3720     2.2060 ca         1 B4C      -0.078300
     13 C16         -0.5940    -3.5320     1.0170 c3         1 B4C      -0.078400
     14 C15         -0.6110    -2.4470    -0.0890 c3         1 B4C       0.034700
     15 C8           7.8920     0.4490    -2.6590 ca         1 B4C      -0.103300
     16 C7           7.1360     0.5010    -1.3380 c3         1 B4C       0.231900
     17 C5           2.4080     0.0350    -0.1510 c3         1 B4C       0.056700
     18 C4           1.6910     1.4130    -0.0650 c3         1 B4C      -0.090400
     19 C3           2.5490     2.5580     0.5250 c3         1 B4C      -0.075400
     20 C30         -3.7610     0.4620    -1.8680 c3         1 B4C       0.154000
     21 C31         -5.1120     1.1470    -2.0160 cc         1 B4C       0.495600
     22 C2           1.7750     3.8890     0.6540 c3         1 B4C      -0.080400
     23 C9           8.4140    -0.7720    -3.1330 ca         1 B4C      -0.083500
     24 C11          9.2950     0.3550    -5.1050 ca         1 B4C      -0.097000
     25 O2           5.7390     0.2980    -1.6070 os         1 B4C      -0.452100
     26 C6           4.8880     0.3160    -0.5470 c          1 B4C       0.640100
     27 O1           5.2030     0.4770     0.6210 o          1 B4C      -0.549000
     28 N2           3.6180     0.1010    -0.9990 ns         1 B4C      -0.483900
     29 C1           2.6450     5.0300     1.2210 c3         1 B4C       0.149800
     30 N1           1.8910     6.2940     1.3120 n8         1 B4C      -0.996200
     31 N3           0.4220    -1.4130     0.1830 ns         1 B4C      -0.493900
     32 C20          0.9040    -6.0820     4.5330 ca         1 B4C      -0.109000
     33 C22          0.3050    -7.7020     2.8200 ca         1 B4C      -0.109000
     34 N4          -2.0800    -0.4370    -0.2510 ns         1 B4C      -0.492900
     35 C29         -2.2780     2.9360     3.9900 c3         1 B4C       0.149800
     36 O5          -2.7300     1.0990    -2.6730 oh         1 B4C      -0.637000
     37 O6          -6.2210     0.5560    -1.4200 os         1 B4C      -0.269700
     38 C37         -7.1950     1.4370    -1.7530 ca         1 B4C       0.028100
     39 C36         -8.5500     1.3540    -1.4120 ca         1 B4C      -0.090000
     40 C35         -9.4030     2.3840    -1.8630 ca         1 B4C      -0.092000
     41 C34         -8.8840     3.4540    -2.6330 ca         1 B4C      -0.125000
     42 C33         -7.5090     3.5000    -2.9550 ca         1 B4C      -0.046000
     43 C32         -6.6860     2.4640    -2.4940 ca         1 B4C       0.056400
     44 N6          -5.3310     2.2990    -2.6810 nd         1 B4C      -0.580100
     45 N5          -2.2080     4.2640     4.6250 n8         1 B4C      -0.995200
     46 H10          9.5140    -1.7630    -4.7130 ha         1 B4C       0.114500
     47 H12          8.9130     2.4820    -5.2210 ha         1 B4C       0.114500
     48 H28         -1.8630     3.6330     1.9800 hc         1 B4C       0.048700
     49 H28A        -3.5810     3.5720     2.3790 hc         1 B4C       0.048700
     50 H27         -1.7870     1.1280     1.9270 hc         1 B4C       0.043200
     51 H27A        -3.5030     1.0610     2.3270 hc         1 B4C       0.043200
     52 H26         -4.0300     2.3330     0.2110 hc         1 B4C       0.053700
     53 H26A        -2.3230     2.3130    -0.2170 hc         1 B4C       0.053700
     54 H25         -4.0960    -0.1530     0.1700 h1         1 B4C       0.087700
     55 H23          0.1520    -6.9370     0.8050 ha         1 B4C       0.110000
     56 H13          7.6730     2.5690    -3.0670 ha         1 B4C       0.115500
     57 H19          1.2180    -4.0560     3.8490 ha         1 B4C       0.110000
     58 H16         -1.3760    -4.2720     0.8030 hc         1 B4C       0.064200
     59 H16A        -0.8530    -3.0740     1.9800 hc         1 B4C       0.064200
     60 H15         -0.3830    -2.9340    -1.0460 h1         1 B4C       0.087700
     61 H7           7.5190    -0.2770    -0.6640 h1         1 B4C       0.057700
     62 H7A          7.3030     1.4740    -0.8580 h1         1 B4C       0.057700
     63 H5           2.7050    -0.2710     0.8610 h1         1 B4C       0.074700
     64 H4           1.3520     1.7010    -1.0690 hc         1 B4C       0.059200
     65 H4A          0.7880     1.3100     0.5500 hc         1 B4C       0.059200
     66 H3           2.9200     2.2590     1.5140 hc         1 B4C       0.045200
     67 H3A          3.4260     2.7240    -0.1120 hc         1 B4C       0.045200
     68 H30         -3.9110    -0.5670    -2.2220 h1         1 B4C       0.111700
     69 H2           1.3940     4.1790    -0.3330 hc         1 B4C       0.045700
     70 H2A          0.9050     3.7400     1.3050 hc         1 B4C       0.045700
     71 H9           8.2760    -1.6850    -2.5580 ha         1 B4C       0.115500
     72 H11          9.8360     0.3180    -6.0480 ha         1 B4C       0.113000
     73 HN2          3.5240    -0.0610    -1.9940 hn         1 B4C       0.337500
     74 H1           3.0020     4.7600     2.2240 h1         1 B4C       0.028700
     75 H1A          3.5180     5.1870     0.5720 h1         1 B4C       0.028700
     76 HN1          2.5240     7.0380     1.6310 hn         1 B4C       0.392500
     77 HN1A         1.6260     6.5930     0.3660 hn         1 B4C       0.392500
     78 HN3          0.4370    -0.9770     1.1000 hn         1 B4C       0.325500
     79 H20          1.1120    -5.8440     5.5740 ha         1 B4C       0.111000
     80 H22          0.0480    -8.7200     2.5350 ha         1 B4C       0.111000
     81 HN4         -1.1910     0.0430    -0.1990 hn         1 B4C       0.337500
     82 H29         -3.0400     2.3390     4.5100 h1         1 B4C       0.024700
     83 H29A        -1.3050     2.4380     4.1090 h1         1 B4C       0.024700
     84 HO5         -3.1450     1.9050    -3.0590 ho         1 B4C       0.466000
     85 H36         -8.9300     0.5250    -0.8210 ha         1 B4C       0.137000
     86 H35        -10.4630     2.3560    -1.6190 ha         1 B4C       0.119000
     87 H34         -9.5470     4.2440    -2.9770 ha         1 B4C       0.119000
     88 H33         -7.0990     4.3160    -3.5450 ha         1 B4C       0.134000
     89 HN5         -3.1370     4.7000     4.5900 hn         1 B4C       0.391500
     90 HN5A        -2.0350     4.1460     5.6300 hn         1 B4C       0.391500
     91 O3           1.5570    -1.5840    -1.7860 o          1 B4C      -0.608100
     92 O4          -3.0410    -2.4880    -0.4030 o          1 B4C      -0.604100
     93 C17          0.7550    -4.2760     1.1510 c3         1 B4C      -0.036100
     94 H21          0.5270    -8.1780     4.9210 ha         1 B4C       0.111000
     95 C27         -2.7410     1.6570     1.8090 c3         1 B4C      -0.075400
     96 H17          1.5480    -3.5620     1.4040 hc         1 B4C       0.057200
     97 H17A         1.0290    -4.7030     0.1780 hc         1 B4C       0.057200
@<TRIPOS>BOND
     1     1    23 ar  
     2     1    24 ar  
     3     1    46 1   
     4     2     9 ar  
     5     2    24 ar  
     6     2    47 1   
     7     3    32 ar  
     8     3    33 ar  
     9     3    94 1   
    10     4    35 1   
    11     4    48 1   
    12     4    49 1   
    13     4    95 1   
    14     5     6 1   
    15     5    52 1   
    16     5    53 1   
    17     5    95 1   
    18     6    20 1   
    19     6    34 1   
    20     6    54 1   
    21     7    14 1   
    22     7    34 1   
    23     7    92 2   
    24     8    12 ar  
    25     8    33 ar  
    26     8    55 1   
    27     9    15 ar  
    28     9    56 1   
    29    10    17 1   
    30    10    31 1   
    31    10    91 2   
    32    11    12 ar  
    33    11    32 ar  
    34    11    57 1   
    35    12    93 1   
    36    13    14 1   
    37    13    58 1   
    38    13    59 1   
    39    13    93 1   
    40    14    31 1   
    41    14    60 1   
    42    15    16 1   
    43    15    23 ar  
    44    16    25 1   
    45    16    61 1   
    46    16    62 1   
    47    17    18 1   
    48    17    28 1   
    49    17    63 1   
    50    18    19 1   
    51    18    64 1   
    52    18    65 1   
    53    19    22 1   
    54    19    66 1   
    55    19    67 1   
    56    20    21 1   
    57    20    36 1   
    58    20    68 1   
    59    21    37 1   
    60    21    44 2   
    61    22    29 1   
    62    22    69 1   
    63    22    70 1   
    64    23    71 1   
    65    24    72 1   
    66    25    26 1   
    67    26    27 2   
    68    26    28 1   
    69    28    73 1   
    70    29    30 1   
    71    29    74 1   
    72    29    75 1   
    73    30    76 1   
    74    30    77 1   
    75    31    78 1   
    76    32    79 1   
    77    33    80 1   
    78    34    81 1   
    79    35    45 1   
    80    35    82 1   
    81    35    83 1   
    82    36    84 1   
    83    37    38 1   
    84    38    39 ar  
    85    38    43 ar  
    86    39    40 ar  
    87    39    85 1   
    88    40    41 ar  
    89    40    86 1   
    90    41    42 ar  
    91    41    87 1   
    92    42    43 ar  
    93    42    88 1   
    94    43    44 1   
    95    45    89 1   
    96    45    90 1   
    97    50    95 1   
    98    51    95 1   
    99    93    96 1   
   100    93    97 1   
@<TRIPOS>SUBSTRUCTURE
     1 B4C         1 TEMP              0 ****  ****    0 ROOT
