@<TRIPOS>MOLECULE
B4C
   97   100     1     0     0
SMALL
bcc


@<TRIPOS>ATOM
      1 C10          8.0310     0.8730    -4.1950 ca         1 B4C      -0.134000
      2 C12          9.3490     1.2040    -2.2120 ca         1 B4C      -0.134000
      3 C21          1.0910    -8.0660     2.5040 ca         1 B4C      -0.130000
      4 C28         -1.7850     3.6880    -1.4680 c3         1 B4C      -0.079400
      5 C26         -3.0190     1.4810    -1.3790 c3         1 B4C      -0.093400
      6 C25         -3.2730     0.1870    -0.6140 c3         1 B4C       0.088700
      7 C24         -1.7610    -1.4590     0.4100 c          1 B4C       0.648100
      8 C23          0.5790    -6.6460     0.6290 ca         1 B4C      -0.124000
      9 C13          8.4020     0.5100    -1.4700 ca         1 B4C      -0.101500
     10 C14          1.2990    -0.3170     0.1420 c          1 B4C       0.654100
     11 C19          1.5670    -5.7080     2.5990 ca         1 B4C      -0.124000
     12 C18          1.0690    -5.5330     1.3100 ca         1 B4C      -0.078300
     13 C16         -0.3180    -3.4780     0.9340 c3         1 B4C      -0.078400
     14 C15         -0.3820    -2.1100     0.2740 c3         1 B4C       0.034700
     15 C8           7.2660    -0.0090    -2.0820 ca         1 B4C      -0.103300
     16 C7           6.2310    -0.7330    -1.2760 c3         1 B4C       0.208700
     17 C5           2.2290     0.5680     0.9710 c3         1 B4C       0.056700
     18 C4           1.5090     1.8810     1.2850 c3         1 B4C      -0.090400
     19 C3           2.2920     2.8070     2.2080 c3         1 B4C      -0.075400
     20 C30         -4.4350    -0.6470    -1.2090 c3         1 B4C       0.130800
     21 C31         -5.7300     0.0930    -1.0890 cc         1 B4C       0.495600
     22 C2           1.5180     4.0810     2.5220 c3         1 B4C      -0.080400
     23 C9           7.0880     0.1790    -3.4500 ca         1 B4C      -0.101500
     24 C11          9.1640     1.3870    -3.5760 ca         1 B4C      -0.115000
     25 O2           5.2740     0.2460    -0.8530 os         1 B4C      -0.428900
     26 C6           4.2630    -0.1830    -0.0960 c          1 B4C       0.756100
     27 O1           4.1040    -1.3360     0.2510 o          1 B4C      -0.598000
     28 N2           3.4460     0.8310     0.2520 ns         1 B4C      -0.550900
     29 C1           2.2870     5.0280     3.4290 c3         1 B4C       0.149800
     30 N1           1.5100     6.2290     3.7020 n8         1 B4C      -0.885800
     31 N3           0.5990    -1.2140     0.8530 ns         1 B4C      -0.560900
     32 C20          1.5790    -6.9630     3.1940 ca         1 B4C      -0.127000
     33 C22          0.5900    -7.9040     1.2190 ca         1 B4C      -0.127000
     34 N4          -2.0710    -0.6160    -0.5870 ns         1 B4C      -0.559900
     35 C29         -0.7900     4.6150    -0.7870 c3         1 B4C       0.149800
     36 O5          -4.2020    -1.0320    -2.5290 oh         1 B4C      -0.574800
     37 O6          -6.1870     0.3620     0.1520 os         1 B4C      -0.269700
     38 C37         -7.3340     1.0650    -0.0490 ca         1 B4C       0.028100
     39 C36         -8.2040     1.5850     0.8860 ca         1 B4C      -0.108000
     40 C35         -9.3030     2.2590     0.3670 ca         1 B4C      -0.110000
     41 C34         -9.5010     2.3910    -1.0120 ca         1 B4C      -0.143000
     42 C33         -8.6100     1.8570    -1.9310 ca         1 B4C      -0.064000
     43 C32         -7.5080     1.1810    -1.4230 ca         1 B4C       0.056400
     44 N6          -6.4500     0.5420    -2.0500 nd         1 B4C      -0.580100
     45 N5          -0.6130     5.8410    -1.5500 n8         1 B4C      -0.884800
     46 H10          7.8840     1.0100    -5.2580 ha         1 B4C       0.132500
     47 H12         10.2310     1.6000    -1.7260 ha         1 B4C       0.132500
     48 H28         -1.4400     3.4790    -2.4850 hc         1 B4C       0.048700
     49 H28A        -2.7470     4.2020    -1.5670 hc         1 B4C       0.048700
     50 H27         -1.0300     1.8550    -0.6340 hc         1 B4C       0.043200
     51 H27A        -2.3000     2.5920     0.3160 hc         1 B4C       0.043200
     52 H26         -3.9590     2.0320    -1.4670 hc         1 B4C       0.053700
     53 H26A        -2.7000     1.2570    -2.4030 hc         1 B4C       0.053700
     54 H25         -3.5340     0.4330     0.4190 h1         1 B4C       0.087700
     55 H23          0.1900    -6.5290    -0.3760 ha         1 B4C       0.128000
     56 H13          8.5530     0.3650    -0.4060 ha         1 B4C       0.133500
     57 H19          1.9540    -4.8530     3.1410 ha         1 B4C       0.128000
     58 H16         -1.1240    -4.0960     0.5310 hc         1 B4C       0.064200
     59 H16A        -0.5010    -3.3890     2.0080 hc         1 B4C       0.064200
     60 H15         -0.1390    -2.2240    -0.7850 h1         1 B4C       0.087700
     61 H7           5.7400    -1.5030    -1.8750 h1         1 B4C       0.057700
     62 H7A          6.6830    -1.2150    -0.4070 h1         1 B4C       0.057700
     63 H5           2.4680     0.0680     1.9160 h1         1 B4C       0.074700
     64 H4           1.2800     2.3940     0.3460 hc         1 B4C       0.059200
     65 H4A          0.5480     1.6400     1.7460 hc         1 B4C       0.059200
     66 H3           2.5280     2.2790     3.1370 hc         1 B4C       0.045200
     67 H3A          3.2500     3.0710     1.7520 hc         1 B4C       0.045200
     68 H30         -4.5140    -1.5630    -0.6140 h1         1 B4C       0.111700
     69 H2           1.2750     4.5960     1.5850 hc         1 B4C       0.045700
     70 H2A          0.5610     3.8310     2.9910 hc         1 B4C       0.045700
     71 H9           6.2090    -0.2250    -3.9380 ha         1 B4C       0.133500
     72 H11          9.9020     1.9250    -4.1560 ha         1 B4C       0.131000
     73 HN2          3.5680     1.7300    -0.1880 hn         1 B4C       0.337500
     74 H1           2.4900     4.5270     4.3790 h1         1 B4C       0.028700
     75 H1A          3.2680     5.2340     2.9750 h1         1 B4C       0.028700
     76 HN1          2.0220     6.8260     4.3380 hn         1 B4C       0.337300
     77 HN1A         1.4160     6.7650     2.8470 hn         1 B4C       0.337300
     78 HN3          0.7470    -1.2680     1.8490 hn         1 B4C       0.325500
     79 H20          1.9760    -7.0820     4.1940 ha         1 B4C       0.129000
     80 H22          0.2130    -8.7580     0.6720 ha         1 B4C       0.129000
     81 HN4         -1.4250    -0.5240    -1.3560 hn         1 B4C       0.337500
     82 H29         -1.1140     4.7850     0.2510 h1         1 B4C       0.024700
     83 H29A         0.1780     4.1110    -0.7210 h1         1 B4C       0.024700
     84 HO5         -4.4300    -0.3060    -3.1220 ho         1 B4C       0.427000
     85 H36         -8.0460     1.4800     1.9510 ha         1 B4C       0.155000
     86 H35        -10.0240     2.6910     1.0480 ha         1 B4C       0.137000
     87 H34        -10.3730     2.9240    -1.3670 ha         1 B4C       0.137000
     88 H33         -8.7670     1.9590    -2.9960 ha         1 B4C       0.152000
     89 HN5         -1.4770     6.3700    -1.5370 hn         1 B4C       0.336300
     90 HN5A         0.0700     6.4310    -1.0920 hn         1 B4C       0.336300
     91 O3           1.1820    -0.1670    -1.0640 o          1 B4C      -0.608100
     92 O4          -2.4830    -1.6610     1.3740 o          1 B4C      -0.604100
     93 C17          1.0230    -4.1690     0.6810 c3         1 B4C      -0.036100
     94 H21          1.1070    -9.0460     2.9630 ha         1 B4C       0.129000
     95 C27         -1.9860     2.3810    -0.7120 c3         1 B4C      -0.075400
     96 H17          1.8380    -3.5560     1.0730 hc         1 B4C       0.057200
     97 H17A         1.1850    -4.2510    -0.3970 hc         1 B4C       0.057200
@<TRIPOS>BOND
     1     1    23 ar  
     2     1    24 ar  
     3     1    46 1   
     4     2     9 ar  
     5     2    24 ar  
     6     2    47 1   
     7     3    32 ar  
     8     3    33 ar  
     9     3    94 1   
    10     4    35 1   
    11     4    48 1   
    12     4    49 1   
    13     4    95 1   
    14     5     6 1   
    15     5    52 1   
    16     5    53 1   
    17     5    95 1   
    18     6    20 1   
    19     6    34 1   
    20     6    54 1   
    21     7    14 1   
    22     7    34 1   
    23     7    92 2   
    24     8    12 ar  
    25     8    33 ar  
    26     8    55 1   
    27     9    15 ar  
    28     9    56 1   
    29    10    17 1   
    30    10    31 1   
    31    10    91 2   
    32    11    12 ar  
    33    11    32 ar  
    34    11    57 1   
    35    12    93 1   
    36    13    14 1   
    37    13    58 1   
    38    13    59 1   
    39    13    93 1   
    40    14    31 1   
    41    14    60 1   
    42    15    16 1   
    43    15    23 ar  
    44    16    25 1   
    45    16    61 1   
    46    16    62 1   
    47    17    18 1   
    48    17    28 1   
    49    17    63 1   
    50    18    19 1   
    51    18    64 1   
    52    18    65 1   
    53    19    22 1   
    54    19    66 1   
    55    19    67 1   
    56    20    21 1   
    57    20    36 1   
    58    20    68 1   
    59    21    37 1   
    60    21    44 2   
    61    22    29 1   
    62    22    69 1   
    63    22    70 1   
    64    23    71 1   
    65    24    72 1   
    66    25    26 1   
    67    26    27 2   
    68    26    28 1   
    69    28    73 1   
    70    29    30 1   
    71    29    74 1   
    72    29    75 1   
    73    30    76 1   
    74    30    77 1   
    75    31    78 1   
    76    32    79 1   
    77    33    80 1   
    78    34    81 1   
    79    35    45 1   
    80    35    82 1   
    81    35    83 1   
    82    36    84 1   
    83    37    38 1   
    84    38    39 ar  
    85    38    43 ar  
    86    39    40 ar  
    87    39    85 1   
    88    40    41 ar  
    89    40    86 1   
    90    41    42 ar  
    91    41    87 1   
    92    42    43 ar  
    93    42    88 1   
    94    43    44 1   
    95    45    89 1   
    96    45    90 1   
    97    50    95 1   
    98    51    95 1   
    99    93    96 1   
   100    93    97 1   
@<TRIPOS>SUBSTRUCTURE
     1 B4C         1 TEMP              0 ****  ****    0 ROOT
