@<TRIPOS>MOLECULE
B4D
   36    37     1     0     0
SMALL
No Charge or Current Charge


@<TRIPOS>ATOM
      1 C01         -4.5790     3.3670     1.6060 c2         1 B4D      -0.286000
      2 C02         -4.2490     2.8050     0.4310 c2         1 B4D      -0.223200
      3 C03         -3.4080     1.5600     0.2630 c3         1 B4D       0.104800
      4 S04         -4.5370     0.0980     0.2350 ss         1 B4D      -0.437000
      5 C05         -3.2990    -1.2970     0.2780 c3         1 B4D       0.032600
      6 C06         -2.7460    -1.7260    -1.1250 c6         1 B4D       0.503700
      7 N07         -1.8160    -0.8130    -1.7200 nu         1 B4D      -0.998200
      8 C08         -0.6650    -0.4190    -1.0840 ca         1 B4D       0.465000
      9 C09         -0.1780     0.8750    -1.2320 ca         1 B4D      -0.234000
     10 C10          0.9800     1.2720    -0.5500 ca         1 B4D       0.305000
     11 Cl11         1.5350     2.9280    -0.8080 cl         1 B4D      -0.147000
     12 C12          1.6500     0.3530     0.2840 ca         1 B4D      -0.344500
     13 S13          3.1230     0.7960     1.1840 sy         1 B4D       1.156600
     14 N14          4.2330     0.9870     0.0090 n8         1 B4D      -1.020100
     15 O15          3.0100     2.1300     1.7660 o          1 B4D      -0.541000
     16 O16          3.6200    -0.3400     1.9550 o          1 B4D      -0.541000
     17 C17          1.1560    -0.9590     0.4100 ca         1 B4D       0.143000
     18 C18         -0.0070    -1.3220    -0.2830 ca         1 B4D      -0.423500
     19 S19         -0.6270    -2.9630    -0.1810 sy         1 B4D       1.169600
     20 O20          0.3120    -3.8490    -0.8690 o          1 B4D      -0.522500
     21 O21         -1.0620    -3.2450     1.1880 o          1 B4D      -0.522500
     22 N22         -1.9870    -2.9340    -1.1360 n7         1 B4D      -0.861300
     23 H01         -4.2520     2.9440     2.5580 ha         1 B4D       0.169000
     24 H01A        -5.1920     4.2680     1.6570 ha         1 B4D       0.169000
     25 H02         -4.5900     3.2440    -0.5080 ha         1 B4D       0.171000
     26 H03         -2.8460     1.6100    -0.6780 h1         1 B4D       0.072700
     27 H03A        -2.6940     1.4620     1.0920 h1         1 B4D       0.072700
     28 H05         -2.4770    -1.0230     0.9480 h1         1 B4D       0.107200
     29 H05A        -3.7970    -2.1750     0.7070 h1         1 B4D       0.107200
     30 H06         -3.6140    -1.8740    -1.7900 h2         1 B4D       0.086700
     31 HN07        -2.2210    -0.1070    -2.3340 hn         1 B4D       0.521000
     32 H09         -0.6920     1.5820    -1.8740 ha         1 B4D       0.133000
     33 HN14         4.5290     1.9410     0.2000 hn         1 B4D       0.481500
     34 HN1A         5.0010     0.4440     0.3960 hn         1 B4D       0.481500
     35 H17          1.6660    -1.6930     1.0370 ha         1 B4D       0.159000
     36 HN22        -1.5320    -2.8950    -2.0400 hn         1 B4D       0.492000
@<TRIPOS>BOND
     1     1     2 2   
     2     1    23 1   
     3     1    24 1   
     4     2     3 1   
     5     2    25 1   
     6     3     4 1   
     7     3    26 1   
     8     3    27 1   
     9     4     5 1   
    10     5     6 1   
    11     5    28 1   
    12     5    29 1   
    13     6     7 1   
    14     6    22 1   
    15     6    30 1   
    16     7     8 1   
    17     7    31 1   
    18     8     9 ar  
    19     8    18 ar  
    20     9    10 ar  
    21     9    32 1   
    22    10    11 1   
    23    10    12 ar  
    24    12    13 1   
    25    12    17 ar  
    26    13    14 1   
    27    13    15 2   
    28    13    16 2   
    29    14    33 1   
    30    14    34 1   
    31    17    18 ar  
    32    17    35 1   
    33    18    19 1   
    34    19    20 2   
    35    19    21 2   
    36    19    22 1   
    37    22    36 1   
@<TRIPOS>SUBSTRUCTURE
     1 B4D         1 TEMP              0 ****  ****    0 ROOT
