@<TRIPOS>MOLECULE
B4D
   36    37     1     0     0
SMALL
bcc


@<TRIPOS>ATOM
      1 C01         -5.1670     3.4100     1.0050 c2         1 B4D      -0.186000
      2 C02         -4.3770     2.5380     0.3910 c2         1 B4D      -0.173200
      3 C03         -4.0160     1.2020     0.9460 c3         1 B4D       0.056900
      4 S04         -4.7780    -0.0930    -0.1000 ss         1 B4D      -0.341200
      5 C05         -3.6090    -1.4670     0.0830 c3         1 B4D      -0.015300
      6 C06         -2.6180    -1.5020    -1.0800 c6         1 B4D       0.503700
      7 N07         -1.8500    -0.2750    -1.1950 nu         1 B4D      -0.804600
      8 C08         -0.6050    -0.0880    -0.7220 ca         1 B4D       0.326600
      9 C09          0.0140     1.1700    -0.8640 ca         1 B4D      -0.252000
     10 C10          1.2850     1.3890    -0.3970 ca         1 B4D       0.213400
     11 CL11         1.9510     2.9590    -0.6080 cl         1 B4D      -0.055400
     12 C12          2.0190     0.3670     0.2230 ca         1 B4D      -0.344500
     13 S13          3.6520     0.5990     0.8590 sy         1 B4D       1.298200
     14 N14          4.5010     0.9480    -0.5050 n8         1 B4D      -0.909700
     15 O15          3.6950     1.7870     1.6940 o          1 B4D      -0.611800
     16 O16          4.0500    -0.6740     1.4430 o          1 B4D      -0.611800
     17 C17          1.4300    -0.8750     0.3590 ca         1 B4D       0.125000
     18 C18          0.1420    -1.1010    -0.0930 ca         1 B4D      -0.423500
     19 S19         -0.5550    -2.7020     0.0880 sy         1 B4D       1.311200
     20 O20          0.4090    -3.7070    -0.3200 o          1 B4D      -0.593300
     21 O21         -1.1620    -2.8090     1.4020 o          1 B4D      -0.593300
     22 N22         -1.7580    -2.6740    -1.0450 n7         1 B4D      -0.806100
     23 H01         -5.6070     3.1980     1.9720 ha         1 B4D       0.119000
     24 H01A        -5.3990     4.3700     0.5630 ha         1 B4D       0.119000
     25 H02         -3.9600     2.7770    -0.5830 ha         1 B4D       0.121000
     26 H03         -2.9350     1.0610     0.9310 h1         1 B4D       0.072700
     27 H03A        -4.3600     1.0900     1.9740 h1         1 B4D       0.072700
     28 H05         -3.1220    -1.3880     1.0520 h1         1 B4D       0.107200
     29 H05A        -4.1860    -2.3930     0.0770 h1         1 B4D       0.107200
     30 H06         -3.1940    -1.6000    -2.0000 h2         1 B4D       0.086700
     31 HN07        -2.2700     0.4690    -1.7280 hn         1 B4D       0.465800
     32 H09         -0.5260     1.9730    -1.3480 ha         1 B4D       0.151000
     33 HN14         5.2890     1.5600    -0.3210 hn         1 B4D       0.426300
     34 HN1A         4.7870     0.1240    -1.0220 hn         1 B4D       0.426300
     35 H17          1.9830    -1.6810     0.8220 ha         1 B4D       0.177000
     36 HN22        -1.4010    -2.9270    -1.9620 hn         1 B4D       0.436800
@<TRIPOS>BOND
     1     1     2 2   
     2     1    23 1   
     3     1    24 1   
     4     2     3 1   
     5     2    25 1   
     6     3     4 1   
     7     3    26 1   
     8     3    27 1   
     9     4     5 1   
    10     5     6 1   
    11     5    28 1   
    12     5    29 1   
    13     6     7 1   
    14     6    22 1   
    15     6    30 1   
    16     7     8 1   
    17     7    31 1   
    18     8     9 ar  
    19     8    18 ar  
    20     9    10 ar  
    21     9    32 1   
    22    10    11 1   
    23    10    12 ar  
    24    12    13 1   
    25    12    17 ar  
    26    13    14 1   
    27    13    15 2   
    28    13    16 2   
    29    14    33 1   
    30    14    34 1   
    31    17    18 ar  
    32    17    35 1   
    33    18    19 1   
    34    19    20 2   
    35    19    21 2   
    36    19    22 1   
    37    22    36 1   
@<TRIPOS>SUBSTRUCTURE
     1 B4D         1 TEMP              0 ****  ****    0 ROOT
