@<TRIPOS>MOLECULE
B4E
   38    41     1     0     0
SMALL
bcc


@<TRIPOS>ATOM
      1 C02          3.5610    -0.2030    -0.0910 ca         1 B4E       0.064400
      2 C03          3.2510     1.1320    -0.2800 ca         1 B4E      -0.169000
      3 C04          1.9050     1.4880    -0.3800 ca         1 B4E       0.147100
      4 C05          0.9220     0.5150    -0.2880 ca         1 B4E      -0.226000
      5 C06          1.2490    -0.8310    -0.0930 ca         1 B4E       0.068200
      6 C07          2.5940    -1.1910     0.0050 ca         1 B4E      -0.166000
      7 C08          0.1790    -1.8120     0.0190 cc         1 B4E      -0.265800
      8 C09          0.2390    -3.2080     0.2120 cc         1 B4E       0.421500
      9 C12         -3.1630    -2.8490     0.2060 cc         1 B4E       0.035700
     10 C13         -3.8930    -1.7200     0.0650 cd         1 B4E      -0.351300
     11 C14         -3.1980    -0.4800    -0.1290 cd         1 B4E       0.723200
     12 C16         -1.1920    -1.5540    -0.0140 cd         1 B4E       0.448500
     13 C18         -3.1830     1.9300    -0.5170 c3         1 B4E       0.203800
     14 C19         -2.6160     2.5120     0.7830 c3         1 B4E       0.116400
     15 C21         -0.3790     3.3640     0.6640 c3         1 B4E       0.103400
     16 C22          0.2920     3.2170    -0.7050 c3         1 B4E       0.108400
     17 N10         -0.9440    -3.7840     0.2970 nd         1 B4E      -0.578100
     18 N11         -1.8120    -2.7660     0.1610 na         1 B4E       0.033200
     19 N15         -1.8860    -0.4270    -0.1640 nd         1 B4E      -0.777000
     20 N17         -3.8670     0.6750    -0.2920 nu         1 B4E      -0.876900
     21 O20         -1.7600     3.6080     0.5520 os         1 B4E      -0.408600
     22 O23          1.6410     2.7970    -0.5750 os         1 B4E      -0.318900
     23 CL1          5.2280    -0.6560     0.0330 cl         1 B4E      -0.116400
     24 H1           4.0260     1.8830    -0.3490 ha         1 B4E       0.158000
     25 H2          -0.1230     0.7720    -0.3570 ha         1 B4E       0.167000
     26 H3           2.8920    -2.2190     0.1630 ha         1 B4E       0.144000
     27 H4           1.1220    -3.8230     0.2970 h4         1 B4E       0.050800
     28 H5          -3.5880    -3.8300     0.3560 h4         1 B4E       0.181000
     29 H6          -4.9710    -1.7700     0.1010 ha         1 B4E       0.158000
     30 H7          -3.8940     2.6210    -0.9660 h1         1 B4E       0.063700
     31 H8          -2.3830     1.7720    -1.2420 h1         1 B4E       0.063700
     32 H9          -3.4440     2.8550     1.4090 h1         1 B4E       0.052700
     33 H10         -2.0980     1.7220     1.3360 h1         1 B4E       0.052700
     34 H11         -0.1840     2.4750     1.2760 h1         1 B4E       0.058200
     35 H12          0.0730     4.2110     1.1870 h1         1 B4E       0.058200
     36 H13         -0.2720     2.5410    -1.3550 h1         1 B4E       0.062700
     37 H14          0.3310     4.1830    -1.2080 h1         1 B4E       0.062700
     38 H15         -4.8700     0.6670    -0.2530 hn         1 B4E       0.447800
@<TRIPOS>BOND
     1     1     2 ar  
     2     1     6 ar  
     3     1    23 1   
     4     2     3 ar  
     5     2    24 1   
     6     3     4 ar  
     7     3    22 1   
     8     4     5 ar  
     9     4    25 1   
    10     5     6 ar  
    11     5     7 1   
    12     6    26 1   
    13     7     8 1   
    14     7    12 2   
    15     8    17 2   
    16     8    27 1   
    17     9    10 2   
    18     9    18 1   
    19     9    28 1   
    20    10    11 1   
    21    10    29 1   
    22    11    19 2   
    23    11    20 1   
    24    12    18 1   
    25    12    19 1   
    26    13    14 1   
    27    13    20 1   
    28    13    30 1   
    29    13    31 1   
    30    14    21 1   
    31    14    32 1   
    32    14    33 1   
    33    15    16 1   
    34    15    21 1   
    35    15    34 1   
    36    15    35 1   
    37    16    22 1   
    38    16    36 1   
    39    16    37 1   
    40    17    18 1   
    41    20    38 1   
@<TRIPOS>SUBSTRUCTURE
     1 B4E         1 TEMP              0 ****  ****    0 ROOT
