@<TRIPOS>MOLECULE
B4E
   38    41     1     0     0
SMALL
No Charge or Current Charge


@<TRIPOS>ATOM
      1 C02          3.5220    -0.1930     0.2210 ca         1 B4E       0.156000
      2 C03          3.2400     1.1360    -0.1230 ca         1 B4E      -0.151000
      3 C04          1.9560     1.4830    -0.5610 ca         1 B4E       0.147100
      4 C05          0.9750     0.4830    -0.6810 ca         1 B4E      -0.208000
      5 C06          1.2110    -0.8410    -0.2500 ca         1 B4E       0.068200
      6 C07          2.5150    -1.1720     0.1690 ca         1 B4E      -0.148000
      7 C08          0.1530    -1.8730    -0.2210 cc         1 B4E      -0.265800
      8 C09          0.2740    -3.2750    -0.1160 cc         1 B4E       0.421500
      9 C12         -3.1810    -3.0260     0.1850 cc         1 B4E       0.003000
     10 C13         -3.8210    -1.7880     0.2200 cd         1 B4E      -0.268000
     11 C14         -3.0900    -0.5530     0.1340 cd         1 B4E       0.657900
     12 C16         -1.1900    -1.6570    -0.0720 cd         1 B4E       0.448500
     13 C18         -3.2150     1.9510    -0.3080 c3         1 B4E       0.203800
     14 C19         -2.7560     2.8550     0.8710 c3         1 B4E       0.139600
     15 C21         -0.3540     3.1910     0.4890 c3         1 B4E       0.126600
     16 C22          0.3310     3.3400    -0.8970 c3         1 B4E       0.131600
     17 N10         -0.8700    -3.9390     0.0100 nd         1 B4E      -0.578100
     18 N11         -1.8030    -2.9080     0.0360 na         1 B4E       0.083900
     19 N15         -1.7400    -0.4000     0.0200 nd         1 B4E      -0.777000
     20 N17         -3.7500     0.6330     0.1440 nu         1 B4E      -0.932100
     21 O20         -1.6930     3.7420     0.4320 os         1 B4E      -0.455000
     22 O23          1.6830     2.8120    -0.8330 os         1 B4E      -0.342100
     23 Cl1          5.1340    -0.6290     0.7710 cl         1 B4E      -0.208000
     24 H1           4.0110     1.8970    -0.0410 ha         1 B4E       0.140000
     25 H2           0.0210     0.7460    -1.1120 ha         1 B4E       0.149000
     26 H3           2.7520    -2.1830     0.4860 ha         1 B4E       0.126000
     27 H4           1.1920    -3.8460    -0.1320 h4         1 B4E       0.050800
     28 H5          -3.6270    -4.0100     0.2530 h4         1 B4E       0.163000
     29 H6          -4.9000    -1.7570     0.3170 ha         1 B4E       0.140000
     30 H7          -3.9900     2.4920    -0.8690 h1         1 B4E       0.063700
     31 H8          -2.3780     1.8100    -1.0050 h1         1 B4E       0.063700
     32 H9          -3.6190     3.4350     1.2220 h1         1 B4E       0.052700
     33 H10         -2.4160     2.2330     1.7100 h1         1 B4E       0.052700
     34 H11         -0.3750     2.1340     0.7830 h1         1 B4E       0.058200
     35 H12          0.2410     3.7270     1.2400 h1         1 B4E       0.058200
     36 H13         -0.2580     2.8320    -1.6700 h1         1 B4E       0.062700
     37 H14          0.3620     4.4060    -1.1580 h1         1 B4E       0.062700
     38 H15         -4.7620     0.5300     0.1990 hn         1 B4E       0.503000
@<TRIPOS>BOND
     1     1     2 ar  
     2     1     6 ar  
     3     1    23 1   
     4     2     3 ar  
     5     2    24 1   
     6     3     4 ar  
     7     3    22 1   
     8     4     5 ar  
     9     4    25 1   
    10     5     6 ar  
    11     5     7 1   
    12     6    26 1   
    13     7     8 1   
    14     7    12 2   
    15     8    17 2   
    16     8    27 1   
    17     9    10 2   
    18     9    18 1   
    19     9    28 1   
    20    10    11 1   
    21    10    29 1   
    22    11    19 2   
    23    11    20 1   
    24    12    18 1   
    25    12    19 1   
    26    13    14 1   
    27    13    20 1   
    28    13    30 1   
    29    13    31 1   
    30    14    21 1   
    31    14    32 1   
    32    14    33 1   
    33    15    16 1   
    34    15    21 1   
    35    15    34 1   
    36    15    35 1   
    37    16    22 1   
    38    16    36 1   
    39    16    37 1   
    40    17    18 1   
    41    20    38 1   
@<TRIPOS>SUBSTRUCTURE
     1 B4E         1 TEMP              0 ****  ****    0 ROOT
