@<TRIPOS>MOLECULE
B4F
   77    82     1     0     0
SMALL
abcg2


@<TRIPOS>ATOM
      1 O1         -12.8290    -3.3330    -0.5770 o          1 B4F      -0.578000
      2 C1         -12.6770    -2.1230    -0.6360 c          1 B4F       0.612000
      3 N1         -13.5490    -1.1780    -0.2010 ns         1 B4F      -0.522900
      4 N2         -11.6060    -1.4700    -1.1640 ns         1 B4F      -0.509900
      5 C2         -11.7450    -0.0350    -1.1510 c5         1 B4F       0.096700
      6 C3         -13.0670     0.1710    -0.3510 c5         1 B4F       0.100700
      7 C4         -12.7380     0.8590     0.9790 c5         1 B4F       0.026600
      8 S1         -11.0170     0.4440     1.3590 ss         1 B4F      -0.403000
      9 C5         -10.6080     0.6710    -0.4040 c5         1 B4F       0.073300
     10 C6          -9.2170     0.1820    -0.7620 c3         1 B4F      -0.059400
     11 C7          -8.1010     0.9350    -0.0490 c3         1 B4F      -0.078400
     12 C8          -6.7190     0.4810    -0.4990 c3         1 B4F      -0.066400
     13 C9          -5.6090     1.2100     0.2460 c3         1 B4F      -0.158400
     14 C10         -4.2250     0.8050    -0.2150 c          1 B4F       0.596100
     15 O2          -3.9550     0.6350    -1.3970 o          1 B4F      -0.613100
     16 N3          -3.3170     0.6540     0.7650 ns         1 B4F      -0.501900
     17 C11         -1.9250     0.3570     0.5260 c3         1 B4F       0.077000
     18 C12         -1.1120     1.6180     0.2250 c3         1 B4F       0.084000
     19 N4           0.2890     1.3260     0.0260 ns         1 B4F      -0.511900
     20 C13          1.1460     1.1630     1.0470 c          1 B4F       0.614700
     21 O3           0.8100     1.3120     2.2150 o          1 B4F      -0.610100
     22 C14          2.5580     0.8090     0.6940 ca         1 B4F      -0.172600
     23 C15          3.5370     1.0150     1.6580 ca         1 B4F      -0.030000
     24 C16          2.9280     0.2600    -0.5320 ca         1 B4F      -0.113000
     25 C17          4.2530    -0.0560    -0.7800 ca         1 B4F      -0.130000
     26 C18          5.2280     0.1650     0.1890 ca         1 B4F      -0.044000
     27 C19          4.8700     0.7060     1.4230 ca         1 B4F      -0.125600
     28 C20          5.9220     0.9490     2.4940 c          1 B4F       0.708600
     29 O4           5.5340     1.4330     3.5710 o          1 B4F      -0.691000
     30 O5           7.0840     0.6310     2.1780 o          1 B4F      -0.691000
     31 C21          6.6180    -0.2190    -0.1510 cc         1 B4F       0.214000
     32 C22          7.0770    -1.5360     0.1610 ca         1 B4F      -0.140000
     33 C23          6.3420    -2.4620     0.9180 ca         1 B4F       0.016000
     34 C24          6.8350    -3.7120     1.1950 ca         1 B4F      -0.187000
     35 C25          8.1020    -4.0830     0.7160 ca         1 B4F       0.184100
     36 O6           8.5330    -5.3110     1.0170 oh         1 B4F      -0.533100
     37 C26          8.8540    -3.1930    -0.0370 ca         1 B4F      -0.258000
     38 C27          8.3350    -1.9350    -0.3000 ca         1 B4F       0.250000
     39 O7           9.1020    -1.1070    -1.0310 os         1 B4F      -0.302000
     40 C28          8.6900     0.1330    -1.3690 cd         1 B4F       0.257000
     41 C29          7.4040     0.5910    -0.9350 cd         1 B4F      -0.184800
     42 C30          9.5270     0.8940    -2.1220 cc         1 B4F      -0.399200
     43 C31          9.1580     2.2280    -2.5240 c          1 B4F       0.591500
     44 O8           9.8940     2.9460    -3.2120 o          1 B4F      -0.607100
     45 C32          7.8470     2.6910    -2.0730 cc         1 B4F      -0.325200
     46 C33          7.0320     1.9170    -1.3280 cd         1 B4F      -0.062200
     47 H1         -14.3260    -1.4120     0.3930 hn         1 B4F       0.339500
     48 H2         -10.9960    -1.9390    -1.8120 hn         1 B4F       0.338500
     49 H3         -11.8170     0.3640    -2.1670 h1         1 B4F       0.062700
     50 H4         -13.7830     0.7820    -0.9050 h1         1 B4F       0.069700
     51 H5         -12.8410     1.9400     0.8770 h1         1 B4F       0.076200
     52 H6         -13.3930     0.5310     1.7850 h1         1 B4F       0.076200
     53 H7         -10.6800     1.7430    -0.6230 h1         1 B4F       0.068700
     54 H8          -9.1340    -0.8870    -0.5480 hc         1 B4F       0.054200
     55 H9          -9.0920     0.2950    -1.8450 hc         1 B4F       0.054200
     56 H10         -8.2100     2.0100    -0.2280 hc         1 B4F       0.044700
     57 H11         -8.1920     0.7960     1.0330 hc         1 B4F       0.044700
     58 H12         -6.6210    -0.5970    -0.3390 hc         1 B4F       0.054700
     59 H13         -6.6120     0.6470    -1.5740 hc         1 B4F       0.054700
     60 H14         -5.7030     2.2890     0.0800 hc         1 B4F       0.055700
     61 H15         -5.7170     1.0580     1.3230 hc         1 B4F       0.055700
     62 H16         -3.5970     0.8450     1.7130 hn         1 B4F       0.314500
     63 H17         -1.5310    -0.1320     1.4170 h1         1 B4F       0.065200
     64 H18         -1.8370    -0.3470    -0.3000 h1         1 B4F       0.065200
     65 H19         -1.4850     2.0890    -0.6840 h1         1 B4F       0.054700
     66 H20         -1.2270     2.3370     1.0370 h1         1 B4F       0.054700
     67 H21          0.6090     1.2260    -0.9220 hn         1 B4F       0.319500
     68 H22          3.2640     1.4300     2.6180 ha         1 B4F       0.161000
     69 H23          2.2000     0.0500    -1.3050 ha         1 B4F       0.091000
     70 H24          4.5290    -0.4870    -1.7340 ha         1 B4F       0.106000
     71 H26          5.3660    -2.1850     1.2920 ha         1 B4F       0.138000
     72 H27          6.2590    -4.4140     1.7830 ha         1 B4F       0.128000
     73 H28          9.4080    -5.4750     0.6460 ho         1 B4F       0.464000
     74 H29          9.8320    -3.4630    -0.4180 ha         1 B4F       0.126000
     75 H30         10.4880     0.5000    -2.4320 ha         1 B4F       0.195000
     76 H31          7.5430     3.6910    -2.3560 ha         1 B4F       0.185000
     77 H32          6.0700     2.2970    -1.0080 ha         1 B4F       0.189000
@<TRIPOS>BOND
     1     1     2 2   
     2     2     3 1   
     3     2     4 1   
     4     3     6 1   
     5     3    47 1   
     6     4     5 1   
     7     4    48 1   
     8     5     6 1   
     9     5     9 1   
    10     5    49 1   
    11     6     7 1   
    12     6    50 1   
    13     7     8 1   
    14     7    51 1   
    15     7    52 1   
    16     8     9 1   
    17     9    10 1   
    18     9    53 1   
    19    10    11 1   
    20    10    54 1   
    21    10    55 1   
    22    11    12 1   
    23    11    56 1   
    24    11    57 1   
    25    12    13 1   
    26    12    58 1   
    27    12    59 1   
    28    13    14 1   
    29    13    60 1   
    30    13    61 1   
    31    14    15 2   
    32    14    16 1   
    33    16    17 1   
    34    16    62 1   
    35    17    18 1   
    36    17    63 1   
    37    17    64 1   
    38    18    19 1   
    39    18    65 1   
    40    18    66 1   
    41    19    20 1   
    42    19    67 1   
    43    20    21 2   
    44    20    22 1   
    45    22    23 ar  
    46    22    24 ar  
    47    23    27 ar  
    48    23    68 1   
    49    24    25 ar  
    50    24    69 1   
    51    25    26 ar  
    52    25    70 1   
    53    26    27 ar  
    54    26    31 1   
    55    27    28 1   
    56    28    29 1   
    57    28    30 1   
    58    31    32 1   
    59    31    41 2   
    60    32    33 ar  
    61    32    38 ar  
    62    33    34 ar  
    63    33    71 1   
    64    34    35 ar  
    65    34    72 1   
    66    35    36 1   
    67    35    37 ar  
    68    36    73 1   
    69    37    38 ar  
    70    37    74 1   
    71    38    39 1   
    72    39    40 1   
    73    40    41 1   
    74    40    42 2   
    75    41    46 1   
    76    42    43 1   
    77    42    75 1   
    78    43    44 2   
    79    43    45 1   
    80    45    46 2   
    81    45    76 1   
    82    46    77 1   
@<TRIPOS>SUBSTRUCTURE
     1 B4F         1 TEMP              0 ****  ****    0 ROOT
