@<TRIPOS>MOLECULE
B4F
   77    82     1     0     0
SMALL
No Charge or Current Charge


@<TRIPOS>ATOM
      1 O1         -12.1130    -3.4140     1.2660 o          1 B4F      -0.578000
      2 C1         -12.2230    -2.3740     0.6470 c          1 B4F       0.612000
      3 N1         -13.2400    -1.4920     0.7740 ns         1 B4F      -0.522900
      4 N2         -11.3570    -1.9290    -0.2920 ns         1 B4F      -0.509900
      5 C2         -11.7520    -0.6380    -0.8690 c5         1 B4F       0.096700
      6 C3         -13.0790    -0.3050    -0.0690 c5         1 B4F       0.100700
      7 C4         -12.7790     0.8600     0.9330 c5         1 B4F       0.026600
      8 S1         -10.9740     0.7690     1.3340 ss         1 B4F      -0.403000
      9 C5         -10.6610     0.4180    -0.4560 c5         1 B4F       0.073300
     10 C6          -9.1840     0.0150    -0.7120 c3         1 B4F      -0.059400
     11 C7          -8.1640     1.1560    -0.4810 c3         1 B4F      -0.078400
     12 C8          -6.7080     0.7360    -0.7810 c3         1 B4F      -0.066400
     13 C9          -5.6910     1.8780    -0.5510 c3         1 B4F      -0.158400
     14 C10         -4.2580     1.4270    -0.8540 c          1 B4F       0.596100
     15 O2          -3.8450     1.2700    -1.9950 o          1 B4F      -0.613100
     16 N3          -3.4580     1.2400     0.2510 ns         1 B4F      -0.501900
     17 C11         -2.0450     0.8410     0.2060 c3         1 B4F       0.077000
     18 C12         -1.1160     1.9850    -0.2600 c3         1 B4F       0.084000
     19 N4           0.2960     1.5870    -0.3070 ns         1 B4F      -0.511900
     20 C13          1.0970     1.3850     0.7960 c          1 B4F       0.614700
     21 O3           0.6700     1.5540     1.9300 o          1 B4F      -0.610100
     22 C14          2.5230     0.9510     0.5260 ca         1 B4F      -0.172600
     23 C15          3.3950     0.7300     1.6150 ca         1 B4F      -0.030000
     24 C16          3.0180     0.7530    -0.7840 ca         1 B4F      -0.113000
     25 C17          4.3450     0.3460    -0.9880 ca         1 B4F      -0.130000
     26 C18          5.2130     0.1380     0.0990 ca         1 B4F      -0.044000
     27 C19          4.7340     0.3310     1.4180 ca         1 B4F      -0.125600
     28 C20          5.6130     0.1070     2.6280 c          1 B4F       0.708600
     29 O4           5.1370    -0.5110     3.5690 o          1 B4F      -0.691000
     30 O5           6.7300     0.6010     2.6410 o          1 B4F      -0.691000
     31 C21          6.5810    -0.3250    -0.1640 cc         1 B4F       0.214000
     32 C22          6.9860    -1.7220     0.0180 ca         1 B4F      -0.140000
     33 C23          6.0720    -2.6990     0.4680 ca         1 B4F       0.016000
     34 C24          6.4870    -4.0320     0.6340 ca         1 B4F      -0.187000
     35 C25          7.8080    -4.4000     0.3510 ca         1 B4F       0.184100
     36 O6           8.1990    -5.6920     0.5140 oh         1 B4F      -0.533100
     37 C26          8.7200    -3.4400    -0.1000 ca         1 B4F      -0.258000
     38 C27          8.3070    -2.1110    -0.2660 ca         1 B4F       0.250000
     39 O7           9.2110    -1.1900    -0.7180 os         1 B4F      -0.302000
     40 C28          8.8580     0.1110    -0.9050 cd         1 B4F       0.257000
     41 C29          7.5280     0.5860    -0.6330 cd         1 B4F      -0.184800
     42 C30          9.8150     0.9740    -1.3650 cc         1 B4F      -0.399200
     43 C31          9.5350     2.3850    -1.5960 c          1 B4F       0.591500
     44 O8          10.3870     3.1540    -2.0130 o          1 B4F      -0.607100
     45 C32          8.1680     2.8200    -1.2890 cc         1 B4F      -0.325200
     46 C33          7.1780     1.9770    -0.8230 cd         1 B4F      -0.062200
     47 H1         -13.9790    -1.6750     1.4420 hn         1 B4F       0.339500
     48 H2         -10.5380    -2.4780    -0.5170 hn         1 B4F       0.338500
     49 H3         -11.9060    -0.6920    -1.9550 h1         1 B4F       0.062700
     50 H4         -13.9470    -0.1120    -0.7140 h1         1 B4F       0.069700
     51 H5         -12.9810     1.8300     0.4590 h1         1 B4F       0.076200
     52 H6         -13.3890     0.8040     1.8450 h1         1 B4F       0.076200
     53 H7         -10.8500     1.3470    -1.0130 h1         1 B4F       0.068700
     54 H8          -8.9090    -0.8320    -0.0720 hc         1 B4F       0.054200
     55 H9          -9.0840    -0.3320    -1.7480 hc         1 B4F       0.054200
     56 H10         -8.4310     2.0100    -1.1160 hc         1 B4F       0.044700
     57 H11         -8.2290     1.4980     0.5590 hc         1 B4F       0.044700
     58 H12         -6.4400    -0.1190    -0.1470 hc         1 B4F       0.054700
     59 H13         -6.6380     0.3940    -1.8220 hc         1 B4F       0.054700
     60 H14         -5.9450     2.7090    -1.2190 hc         1 B4F       0.055700
     61 H15         -5.7670     2.2060     0.4930 hc         1 B4F       0.055700
     62 H16         -3.8880     1.3980     1.1550 hn         1 B4F       0.314500
     63 H17         -1.7450     0.5130     1.2100 h1         1 B4F       0.065200
     64 H18         -1.9380    -0.0150    -0.4730 h1         1 B4F       0.065200
     65 H19         -1.4160     2.3130    -1.2640 h1         1 B4F       0.054700
     66 H20         -1.2220     2.8410     0.4190 h1         1 B4F       0.054700
     67 H21          0.7240     1.4330    -1.2110 hn         1 B4F       0.319500
     68 H22          3.0350     0.8740     2.6330 ha         1 B4F       0.161000
     69 H23          2.3880     0.9030    -1.6560 ha         1 B4F       0.091000
     70 H24          4.7050     0.1880    -2.0030 ha         1 B4F       0.106000
     71 H26          5.0390    -2.4370     0.6900 ha         1 B4F       0.138000
     72 H27          5.7790    -4.7800     0.9820 ha         1 B4F       0.128000
     73 H28          9.1470    -5.7580     0.2710 ho         1 B4F       0.464000
     74 H29          9.7470    -3.7120    -0.3270 ha         1 B4F       0.126000
     75 H30         10.8220     0.6450    -1.5810 ha         1 B4F       0.195000
     76 H31          7.9750     3.8740    -1.4560 ha         1 B4F       0.185000
     77 H32          6.1870     2.3710    -0.6120 ha         1 B4F       0.189000
@<TRIPOS>BOND
     1     1     2 2   
     2     2     3 1   
     3     2     4 1   
     4     3     6 1   
     5     3    47 1   
     6     4     5 1   
     7     4    48 1   
     8     5     6 1   
     9     5     9 1   
    10     5    49 1   
    11     6     7 1   
    12     6    50 1   
    13     7     8 1   
    14     7    51 1   
    15     7    52 1   
    16     8     9 1   
    17     9    10 1   
    18     9    53 1   
    19    10    11 1   
    20    10    54 1   
    21    10    55 1   
    22    11    12 1   
    23    11    56 1   
    24    11    57 1   
    25    12    13 1   
    26    12    58 1   
    27    12    59 1   
    28    13    14 1   
    29    13    60 1   
    30    13    61 1   
    31    14    15 2   
    32    14    16 1   
    33    16    17 1   
    34    16    62 1   
    35    17    18 1   
    36    17    63 1   
    37    17    64 1   
    38    18    19 1   
    39    18    65 1   
    40    18    66 1   
    41    19    20 1   
    42    19    67 1   
    43    20    21 2   
    44    20    22 1   
    45    22    23 ar  
    46    22    24 ar  
    47    23    27 ar  
    48    23    68 1   
    49    24    25 ar  
    50    24    69 1   
    51    25    26 ar  
    52    25    70 1   
    53    26    27 ar  
    54    26    31 1   
    55    27    28 1   
    56    28    29 1   
    57    28    30 1   
    58    31    32 1   
    59    31    41 2   
    60    32    33 ar  
    61    32    38 ar  
    62    33    34 ar  
    63    33    71 1   
    64    34    35 ar  
    65    34    72 1   
    66    35    36 1   
    67    35    37 ar  
    68    36    73 1   
    69    37    38 ar  
    70    37    74 1   
    71    38    39 1   
    72    39    40 1   
    73    40    41 1   
    74    40    42 2   
    75    41    46 1   
    76    42    43 1   
    77    42    75 1   
    78    43    44 2   
    79    43    45 1   
    80    45    46 2   
    81    45    76 1   
    82    46    77 1   
@<TRIPOS>SUBSTRUCTURE
     1 B4F         1 TEMP              0 ****  ****    0 ROOT
