@<TRIPOS>MOLECULE
B4H
   19    19     1     0     0
SMALL
abcg2


@<TRIPOS>ATOM
      1 OAC         -2.7180    -1.7400     0.0150 o          1 B4H      -0.393000
      2 NAN         -2.7290    -0.5380     0.1310 no         1 B4H       0.695200
      3 OAD         -3.7260     0.1150     0.3230 o          1 B4H      -0.393000
      4 CAL         -1.4590     0.1710     0.0320 ca         1 B4H      -0.192200
      5 CAH         -0.3030    -0.5550    -0.1840 ca         1 B4H       0.003000
      6 CAG         -1.4470     1.5540     0.1580 ca         1 B4H      -0.022000
      7 CAF         -0.2360     2.2170     0.0610 ca         1 B4H      -0.136000
      8 CAK          0.9370     1.5100    -0.1550 ca         1 B4H      -0.022000
      9 CAM          0.9080     0.1220    -0.2750 ca         1 B4H      -0.169600
     10 CAJ          2.1440    -0.6800    -0.4880 c          1 B4H       0.711100
     11 OAB          2.1200    -1.8790    -0.6560 o          1 B4H      -0.522100
     12 NAI          3.3140     0.0510    -0.5740 ne         1 B4H      -0.660100
     13 CAA          4.2120     0.0020     0.3090 c2         1 B4H       0.519100
     14 H1          -0.3290    -1.6310    -0.2770 ha         1 B4H       0.173000
     15 H2          -2.3570     2.1100     0.3280 ha         1 B4H       0.154000
     16 H3          -0.2080     3.2940     0.1530 ha         1 B4H       0.133000
     17 H4           1.8710     2.0480    -0.2370 ha         1 B4H       0.136000
     18 H6           4.1200    -0.5660     1.2340 h4         1 B4H      -0.006700
     19 H7           5.1320     0.5570     0.1560 h4         1 B4H      -0.006700
@<TRIPOS>BOND
     1     1     2 1   
     2     2     3 1   
     3     2     4 1   
     4     4     5 ar  
     5     4     6 ar  
     6     5     9 ar  
     7     5    14 1   
     8     6     7 ar  
     9     6    15 1   
    10     7     8 ar  
    11     7    16 1   
    12     8     9 ar  
    13     8    17 1   
    14     9    10 1   
    15    10    11 2   
    16    10    12 1   
    17    12    13 2   
    18    13    18 1   
    19    13    19 1   
@<TRIPOS>SUBSTRUCTURE
     1 B4H         1 TEMP              0 ****  ****    0 ROOT
