@<TRIPOS>MOLECULE
B4H
   19    19     1     0     0
SMALL
No Charge or Current Charge


@<TRIPOS>ATOM
      1 OAC         -2.7560    -1.8200     0.1000 o          1 B4H      -0.393000
      2 NAN         -2.7830    -0.5860     0.1910 no         1 B4H       0.695200
      3 OAD         -3.8190     0.0630     0.3900 o          1 B4H      -0.393000
      4 CAL         -1.4930     0.1630     0.0510 ca         1 B4H      -0.192200
      5 CAH         -0.2820    -0.5330    -0.1780 ca         1 B4H       0.003000
      6 CAG         -1.4720     1.5730     0.1480 ca         1 B4H      -0.022000
      7 CAF         -0.2600     2.2680     0.0150 ca         1 B4H      -0.136000
      8 CAK          0.9390     1.5750    -0.2120 ca         1 B4H      -0.022000
      9 CAM          0.9430     0.1630    -0.3100 ca         1 B4H      -0.169600
     10 CAJ          2.2170    -0.6180    -0.5550 c          1 B4H       0.711100
     11 OAB          2.2090    -1.8290    -0.7140 o          1 B4H      -0.522100
     12 NAI          3.3860     0.1280    -0.5930 ne         1 B4H      -0.660100
     13 CAA          4.2490    -0.0800     0.3550 c2         1 B4H       0.519100
     14 H1          -0.2880    -1.6200    -0.2540 ha         1 B4H       0.173000
     15 H2          -2.3870     2.1370     0.3240 ha         1 B4H       0.154000
     16 H3          -0.2500     3.3530     0.0890 ha         1 B4H       0.133000
     17 H4           1.8580     2.1480    -0.3130 ha         1 B4H       0.136000
     18 H6           4.0550    -0.7990     1.1470 h4         1 B4H      -0.006700
     19 H7           5.1810     0.4770     0.3720 h4         1 B4H      -0.006700
@<TRIPOS>BOND
     1     1     2 1   
     2     2     3 1   
     3     2     4 1   
     4     4     5 ar  
     5     4     6 ar  
     6     5     9 ar  
     7     5    14 1   
     8     6     7 ar  
     9     6    15 1   
    10     7     8 ar  
    11     7    16 1   
    12     8     9 ar  
    13     8    17 1   
    14     9    10 1   
    15    10    11 2   
    16    10    12 1   
    17    12    13 2   
    18    13    18 1   
    19    13    19 1   
@<TRIPOS>SUBSTRUCTURE
     1 B4H         1 TEMP              0 ****  ****    0 ROOT
