@<TRIPOS>MOLECULE
B4I
   62    65     1     0     0
SMALL
No Charge or Current Charge


@<TRIPOS>ATOM
      1 C1         -12.2700     5.3080    12.6840 ca         1 B4I      -0.110000
      2 C2         -11.1940     4.8000    11.9390 ca         1 B4I      -0.121000
      3 C6         -13.4670     5.6580    12.0370 ca         1 B4I      -0.121000
      4 C16        -10.1230    -0.4660     8.3010 ca         1 B4I      -0.053000
      5 C3         -11.3150     4.6410    10.5480 ca         1 B4I      -0.089500
      6 C5         -13.5900     5.4980    10.6460 ca         1 B4I      -0.089500
      7 C15        -10.8000     0.7130     8.6500 ca         1 B4I      -0.140000
      8 C18        -11.9550    -1.0770     6.8310 ca         1 B4I      -0.035000
      9 C31        -11.3320     9.7300     8.2790 ca         1 B4I      -0.085000
     10 C35        -10.7730     8.3020    10.1680 ca         1 B4I      -0.085000
     11 C33        -12.0240    10.3590    10.5290 ca         1 B4I      -0.100000
     12 C17        -10.6900    -1.3770     7.3840 ca         1 B4I      -0.143600
     13 C4         -12.5160     4.9860     9.8900 ca         1 B4I      -0.080300
     14 C14        -12.0620     1.0160     8.1050 ca         1 B4I      -0.054300
     15 C30        -10.7220     8.5620     8.7810 ca         1 B4I      -0.108300
     16 C19        -12.6460     0.1030     7.1880 ca         1 B4I      -0.195200
     17 C32        -11.9780    10.6230     9.1510 ca         1 B4I       0.120500
     18 C34        -11.4210     9.1970    11.0340 ca         1 B4I       0.120500
     19 C10        -11.6150     4.6490     5.6130 c6         1 B4I      -0.074400
     20 C9         -12.1960     5.9870     6.1190 c6         1 B4I      -0.103400
     21 C11        -12.2760     3.4520     6.3380 c6         1 B4I       0.161800
     22 C7         -12.6530     4.8360     8.3620 c6         1 B4I       0.240800
     23 C8         -12.0290     6.0920     7.6560 c6         1 B4I       0.173300
     24 C28         -8.5130     7.4680     8.1020 c3         1 B4I       0.170600
     25 C27        -10.0410     7.5760     7.8280 c3         1 B4I       0.214600
     26 N20        -13.9740     0.3550     6.5670 no         1 B4I       0.692200
     27 N12        -12.1300     3.5290     7.8220 n3         1 B4I      -0.703600
     28 O25        -10.4910    -3.4120     6.2050 o          1 B4I      -0.708000
     29 O22        -14.9560     0.4210     7.3160 o          1 B4I      -0.428500
     30 O24         -8.8640    -2.8690     7.4980 o          1 B4I      -0.708000
     31 O21        -14.0550     0.2580     5.3360 o          1 B4I      -0.428500
     32 O26        -10.6330     6.2720     8.0200 os         1 B4I      -0.415000
     33 Cl37       -12.7370    12.0750     8.5120 cl         1 B4I      -0.199000
     34 Cl36       -11.4790     8.8610    12.7600 cl         1 B4I      -0.199000
     35 H1         -12.1760     5.4350    13.7610 ha         1 B4I       0.105000
     36 H2         -10.2650     4.5320    12.4370 ha         1 B4I       0.109000
     37 H3         -14.2990     6.0570    12.6140 ha         1 B4I       0.109000
     38 H4          -9.1480    -0.6640     8.7430 ha         1 B4I       0.136000
     39 H5         -10.4760     4.2530     9.9750 ha         1 B4I       0.123000
     40 H6         -14.5200     5.7770    10.1560 ha         1 B4I       0.123000
     41 H7         -10.3350     1.4080     9.3460 ha         1 B4I       0.125000
     42 H8         -12.4110    -1.7660     6.1220 ha         1 B4I       0.162000
     43 H9         -11.3110     9.9470     7.2140 ha         1 B4I       0.144000
     44 H10        -10.3210     7.4010    10.5740 ha         1 B4I       0.144000
     45 H11        -12.5250    11.0500    11.2000 ha         1 B4I       0.140000
     46 H12        -11.7720     4.5570     4.5300 hc         1 B4I       0.056200
     47 H13        -10.5290     4.6230     5.7750 hc         1 B4I       0.056200
     48 H14        -11.7160     6.8310     5.6080 hc         1 B4I       0.038700
     49 H15        -13.2630     6.0430     5.8660 hc         1 B4I       0.038700
     50 H16        -13.3410     3.4170     6.0650 h1         1 B4I       0.038700
     51 H17        -11.8160     2.5300     5.9540 h1         1 B4I       0.038700
     52 H18        -13.7300     4.8690     8.1410 h1         1 B4I       0.028700
     53 H19        -12.5920     6.9690     8.0040 h1         1 B4I       0.033700
     54 H22         -8.3560     6.9890     9.0780 h1         1 B4I       0.027200
     55 H23         -8.0990     8.4830     8.1660 h1         1 B4I       0.027200
     56 H24        -10.1760     7.9190     6.7940 h1         1 B4I       0.048700
     57 C13        -12.7200     2.3450     8.5050 c3         1 B4I       0.205100
     58 C23         -9.9580    -2.6500     6.9990 c          1 B4I       0.717600
     59 H20        -12.6030     2.4360     9.5930 h1         1 B4I       0.055200
     60 H21        -13.8010     2.3170     8.3280 h1         1 B4I       0.055200
     61 H27         -6.8940     6.6340     7.3520 ho         1 B4I       0.504000
     62 O29         -7.8320     6.7300     7.0660 oh         1 B4I      -0.705000
@<TRIPOS>BOND
     1     1     2 ar  
     2     1     3 ar  
     3     1    35 1   
     4     2     5 ar  
     5     2    36 1   
     6     3     6 ar  
     7     3    37 1   
     8     4     7 ar  
     9     4    12 ar  
    10     4    38 1   
    11     5    13 ar  
    12     5    39 1   
    13     6    13 ar  
    14     6    40 1   
    15     7    14 ar  
    16     7    41 1   
    17     8    12 ar  
    18     8    16 ar  
    19     8    42 1   
    20     9    15 ar  
    21     9    17 ar  
    22     9    43 1   
    23    10    15 ar  
    24    10    18 ar  
    25    10    44 1   
    26    11    17 ar  
    27    11    18 ar  
    28    11    45 1   
    29    12    58 1   
    30    13    22 1   
    31    14    16 ar  
    32    14    57 1   
    33    15    25 1   
    34    16    26 1   
    35    17    33 1   
    36    18    34 1   
    37    19    20 1   
    38    19    21 1   
    39    19    46 1   
    40    19    47 1   
    41    20    23 1   
    42    20    48 1   
    43    20    49 1   
    44    21    27 1   
    45    21    50 1   
    46    21    51 1   
    47    22    23 1   
    48    22    27 1   
    49    22    52 1   
    50    23    32 1   
    51    23    53 1   
    52    24    25 1   
    53    24    54 1   
    54    24    55 1   
    55    24    62 1   
    56    25    32 1   
    57    25    56 1   
    58    26    29 1   
    59    26    31 1   
    60    27    57 1   
    61    28    58 1   
    62    30    58 1   
    63    57    59 1   
    64    57    60 1   
    65    61    62 1   
@<TRIPOS>SUBSTRUCTURE
     1 B4I         1 TEMP              0 ****  ****    0 ROOT
