@<TRIPOS>MOLECULE
B4I
   62    65     1     0     0
SMALL
abcg2


@<TRIPOS>ATOM
      1 C1         -12.4850     5.0120    12.3580 ca         1 B4I      -0.110000
      2 C2         -11.4780     4.3960    11.6250 ca         1 B4I      -0.121000
      3 C6         -13.5680     5.5710    11.6960 ca         1 B4I      -0.121000
      4 C16         -9.9620     0.1290     7.5670 ca         1 B4I      -0.053000
      5 C3         -11.5510     4.3440    10.2410 ca         1 B4I      -0.089500
      6 C5         -13.6440     5.5070    10.3110 ca         1 B4I      -0.089500
      7 C15        -10.7310     1.2750     7.6890 ca         1 B4I      -0.140000
      8 C18        -11.9210    -1.2110     7.6770 ca         1 B4I      -0.035000
      9 C31        -11.0330     9.7420     8.5790 ca         1 B4I      -0.085000
     10 C35        -10.9640     8.0590    10.2980 ca         1 B4I      -0.085000
     11 C33        -11.7610    10.2880    10.8190 ca         1 B4I      -0.100000
     12 C17        -10.5440    -1.1350     7.5590 ca         1 B4I      -0.143600
     13 C4         -12.6390     4.8960     9.5680 ca         1 B4I      -0.080300
     14 C14        -12.1160     1.2250     7.8200 ca         1 B4I      -0.054300
     15 C30        -10.7350     8.4450     8.9800 ca         1 B4I      -0.108300
     16 C19        -12.6780    -0.0560     7.8180 ca         1 B4I      -0.195200
     17 C32        -11.5410    10.6440     9.5000 ca         1 B4I       0.120500
     18 C34        -11.4620     8.9880    11.1960 ca         1 B4I       0.120500
     19 C10        -11.4410     4.8780     5.4550 c6         1 B4I      -0.074400
     20 C9         -12.0480     6.1640     5.9890 c6         1 B4I      -0.103400
     21 C11        -12.1960     3.6930     6.0210 c6         1 B4I       0.161800
     22 C7         -12.7280     4.8940     8.0590 c6         1 B4I       0.240800
     23 C8         -12.0400     6.1560     7.5110 c6         1 B4I       0.173300
     24 C28         -8.6450     7.3030     8.2950 c3         1 B4I       0.170600
     25 C27        -10.1230     7.4770     7.9890 c3         1 B4I       0.214600
     26 N20        -14.1100    -0.2480     7.9930 no         1 B4I       0.692200
     27 N12        -12.1840     3.6700     7.4790 n3         1 B4I      -0.703600
     28 O25        -10.3290    -3.4820     7.4860 o          1 B4I      -0.708000
     29 O22        -14.7020     0.5060     8.7310 o          1 B4I      -0.428500
     30 O24         -8.4840    -2.2410     7.2640 o          1 B4I      -0.708000
     31 O21        -14.6350    -1.1680     7.4110 o          1 B4I      -0.428500
     32 O26        -10.7260     6.2110     8.0260 os         1 B4I      -0.415000
     33 CL37       -11.9200    12.2550     8.9930 cl         1 B4I      -0.199000
     34 CL36       -11.7130     8.5340    12.8460 cl         1 B4I      -0.199000
     35 H1         -12.4240     5.0560    13.4380 ha         1 B4I       0.105000
     36 H2         -10.6290     3.9570    12.1340 ha         1 B4I       0.109000
     37 H3         -14.3590     6.0530    12.2570 ha         1 B4I       0.109000
     38 H4          -8.8880     0.2200     7.4740 ha         1 B4I       0.136000
     39 H5         -10.7620     3.8600     9.6810 ha         1 B4I       0.123000
     40 H6         -14.4980     5.9360     9.8000 ha         1 B4I       0.123000
     41 H7         -10.2570     2.2470     7.6740 ha         1 B4I       0.125000
     42 H8         -12.3970    -2.1810     7.6810 ha         1 B4I       0.162000
     43 H9         -10.8700    10.0460     7.5530 ha         1 B4I       0.144000
     44 H10        -10.7610     7.0450    10.6210 ha         1 B4I       0.144000
     45 H11        -12.1530    11.0000    11.5320 ha         1 B4I       0.140000
     46 H12        -11.4970     4.8490     4.3650 hc         1 B4I       0.056200
     47 H13        -10.3830     4.8130     5.7220 hc         1 B4I       0.056200
     48 H14        -11.5300     7.0440     5.6010 hc         1 B4I       0.038700
     49 H15        -13.0860     6.2500     5.6530 hc         1 B4I       0.038700
     50 H16        -13.2350     3.7190     5.6460 h1         1 B4I       0.038700
     51 H17        -11.7560     2.7620     5.6560 h1         1 B4I       0.038700
     52 H18        -13.7930     5.0070     7.7820 h1         1 B4I       0.028700
     53 H19        -12.6270     7.0090     7.8810 h1         1 B4I       0.033700
     54 H22         -8.5360     6.8130     9.2720 h1         1 B4I       0.027200
     55 H23         -8.2000     8.3010     8.3880 h1         1 B4I       0.027200
     56 H24        -10.2040     7.9240     6.9870 h1         1 B4I       0.048700
     57 C13        -12.9110     2.5040     7.9470 c3         1 B4I       0.205100
     58 C23         -9.7070    -2.4050     7.4240 c          1 B4I       0.717600
     59 H20        -13.1620     2.6340     9.0010 h1         1 B4I       0.055200
     60 H21        -13.8710     2.4160     7.4190 h1         1 B4I       0.055200
     61 H27         -7.1230     6.4410     7.4670 ho         1 B4I       0.504000
     62 O29         -8.0540     6.5590     7.2590 oh         1 B4I      -0.705000
@<TRIPOS>BOND
     1     1     2 ar  
     2     1     3 ar  
     3     1    35 1   
     4     2     5 ar  
     5     2    36 1   
     6     3     6 ar  
     7     3    37 1   
     8     4     7 ar  
     9     4    12 ar  
    10     4    38 1   
    11     5    13 ar  
    12     5    39 1   
    13     6    13 ar  
    14     6    40 1   
    15     7    14 ar  
    16     7    41 1   
    17     8    12 ar  
    18     8    16 ar  
    19     8    42 1   
    20     9    15 ar  
    21     9    17 ar  
    22     9    43 1   
    23    10    15 ar  
    24    10    18 ar  
    25    10    44 1   
    26    11    17 ar  
    27    11    18 ar  
    28    11    45 1   
    29    12    58 1   
    30    13    22 1   
    31    14    16 ar  
    32    14    57 1   
    33    15    25 1   
    34    16    26 1   
    35    17    33 1   
    36    18    34 1   
    37    19    20 1   
    38    19    21 1   
    39    19    46 1   
    40    19    47 1   
    41    20    23 1   
    42    20    48 1   
    43    20    49 1   
    44    21    27 1   
    45    21    50 1   
    46    21    51 1   
    47    22    23 1   
    48    22    27 1   
    49    22    52 1   
    50    23    32 1   
    51    23    53 1   
    52    24    25 1   
    53    24    54 1   
    54    24    55 1   
    55    24    62 1   
    56    25    32 1   
    57    25    56 1   
    58    26    29 1   
    59    26    31 1   
    60    27    57 1   
    61    28    58 1   
    62    30    58 1   
    63    57    59 1   
    64    57    60 1   
    65    61    62 1   
@<TRIPOS>SUBSTRUCTURE
     1 B4I         1 TEMP              0 ****  ****    0 ROOT
