@<TRIPOS>MOLECULE
B4J
   59    62     1     0     0
SMALL
No Charge or Current Charge


@<TRIPOS>ATOM
      1 C1           7.4590     1.0420     0.2100 ca         1 B4J       0.101100
      2 C2           6.9350     1.8200    -0.8480 ca         1 B4J       0.136100
      3 C3           5.6420     1.5400    -1.3410 ca         1 B4J      -0.185000
      4 C4           4.8780     0.4990    -0.7880 ca         1 B4J      -0.078000
      5 C5           5.3870    -0.2880     0.2710 ca         1 B4J      -0.155600
      6 C6           6.6830    -0.0040     0.7610 ca         1 B4J      -0.121000
      7 C7           4.5870    -1.4210     0.8900 c          1 B4J       0.622700
      8 N8           3.3340    -1.6490     0.3700 ns         1 B4J      -0.509900
      9 C9           2.4250    -2.6930     0.8370 c3         1 B4J       0.144300
     10 C10          1.1120    -2.6490     0.0720 ca         1 B4J      -0.117300
     11 C11          0.9550    -3.3990    -1.1060 ca         1 B4J      -0.078000
     12 C12         -0.2560    -3.3530    -1.8120 ca         1 B4J      -0.118000
     13 C13         -1.3180    -2.5580    -1.3500 ca         1 B4J      -0.079000
     14 C14         -1.1800    -1.7910    -0.1650 ca         1 B4J      -0.150600
     15 C15          0.0480    -1.8500     0.5350 ca         1 B4J      -0.039000
     16 C16         -2.2960    -0.9160     0.3750 c          1 B4J       0.618700
     17 O17         -2.1550    -0.2650     1.3990 o          1 B4J      -0.575100
     18 O18          8.7310     1.3350     0.6790 os         1 B4J      -0.322100
     19 C19          9.3520     0.6020     1.7510 c3         1 B4J       0.143900
     20 O20          7.7130     2.8400    -1.3720 os         1 B4J      -0.317100
     21 C21          7.2610     3.6800    -2.4480 c3         1 B4J       0.144900
     22 O22          5.0220    -2.1050     1.8060 o          1 B4J      -0.602100
     23 C23         -6.6880     0.4000    -0.5540 cc         1 B4J       0.321300
     24 C24         -6.5170     1.1170     0.5960 cd         1 B4J      -0.284300
     25 C25         -7.5590     2.0320     1.1830 c6         1 B4J       0.252100
     26 N26         -8.8970     1.6980     0.6250 n3         1 B4J      -0.712600
     27 C27         -8.8660     1.5980    -0.8590 c6         1 B4J       0.165800
     28 C28         -7.9770     0.4220    -1.3250 c6         1 B4J      -0.099700
     29 N29         -3.4610    -0.9020    -0.3510 ns         1 B4J      -0.464400
     30 C30         -4.6200    -0.2180    -0.1130 cd         1 B4J       0.537300
     31 S31         -4.9160     0.8710     1.2570 ss         1 B4J       0.065600
     32 N32         -5.6240    -0.3620    -0.9630 nc         1 B4J      -0.703000
     33 H1           5.2120     2.1190    -2.1520 ha         1 B4J       0.122000
     34 H2           3.8870     0.3200    -1.1990 ha         1 B4J       0.115000
     35 H3           7.0770    -0.6070     1.5740 ha         1 B4J       0.141000
     36 H4           3.0310    -1.0530    -0.3880 hn         1 B4J       0.317500
     37 H5           2.9040    -3.6720     0.7020 h1         1 B4J       0.067700
     38 H6           2.2380    -2.5530     1.9100 h1         1 B4J       0.067700
     39 H7           1.7720    -4.0170    -1.4760 ha         1 B4J       0.117000
     40 H8          -0.3720    -3.9350    -2.7240 ha         1 B4J       0.121000
     41 H9          -2.2380    -2.5520    -1.9290 ha         1 B4J       0.116000
     42 H10          0.1830    -1.2700     1.4460 ha         1 B4J       0.146000
     43 H11          8.7610     0.6820     2.6720 h1         1 B4J       0.042700
     44 H12          9.4580    -0.4580     1.4890 h1         1 B4J       0.042700
     45 H13         10.3530     1.0030     1.9540 h1         1 B4J       0.042700
     46 H14          6.3520     4.2250    -2.1630 h1         1 B4J       0.042367
     47 H15          8.0330     4.4170    -2.7030 h1         1 B4J       0.042367
     48 H16          7.0500     3.0860    -3.3460 h1         1 B4J       0.042367
     49 H17         -7.5660     1.9350     2.2790 h1         1 B4J       0.042700
     50 H18         -7.2950     3.0750     0.9510 h1         1 B4J       0.042700
     51 H20         -9.8800     1.4490    -1.2600 h1         1 B4J       0.034700
     52 H21         -8.4830     2.5350    -1.2910 h1         1 B4J       0.034700
     53 H22         -7.7920     0.5020    -2.4040 hc         1 B4J       0.064200
     54 H23         -8.5150    -0.5210    -1.1680 hc         1 B4J       0.064200
     55 H24         -3.4520    -1.4800    -1.1740 hn         1 B4J       0.342500
     56 H25         -9.7580     3.6440     0.7690 h1         1 B4J       0.031033
     57 H26        -10.9340     2.3080     0.7460 h1         1 B4J       0.031033
     58 H27         -9.9780     2.6230     2.2100 h1         1 B4J       0.031033
     59 C33         -9.9460     2.6180     1.1120 c3         1 B4J       0.152100
@<TRIPOS>BOND
     1     1     2 ar  
     2     1     6 ar  
     3     1    18 1   
     4     2     3 ar  
     5     2    20 1   
     6     3     4 ar  
     7     3    33 1   
     8     4     5 ar  
     9     4    34 1   
    10     5     6 ar  
    11     5     7 1   
    12     6    35 1   
    13     7     8 1   
    14     7    22 2   
    15     8     9 1   
    16     8    36 1   
    17     9    10 1   
    18     9    37 1   
    19     9    38 1   
    20    10    11 ar  
    21    10    15 ar  
    22    11    12 ar  
    23    11    39 1   
    24    12    13 ar  
    25    12    40 1   
    26    13    14 ar  
    27    13    41 1   
    28    14    15 ar  
    29    14    16 1   
    30    15    42 1   
    31    16    17 2   
    32    16    29 1   
    33    18    19 1   
    34    19    43 1   
    35    19    44 1   
    36    19    45 1   
    37    20    21 1   
    38    21    46 1   
    39    21    47 1   
    40    21    48 1   
    41    23    24 2   
    42    23    28 1   
    43    23    32 1   
    44    24    25 1   
    45    24    31 1   
    46    25    26 1   
    47    25    49 1   
    48    25    50 1   
    49    26    27 1   
    50    26    59 1   
    51    27    28 1   
    52    27    51 1   
    53    27    52 1   
    54    28    53 1   
    55    28    54 1   
    56    29    30 1   
    57    29    55 1   
    58    30    31 1   
    59    30    32 2   
    60    56    59 1   
    61    57    59 1   
    62    58    59 1   
@<TRIPOS>SUBSTRUCTURE
     1 B4J         1 TEMP              0 ****  ****    0 ROOT
