@<TRIPOS>MOLECULE
B4J
   59    62     1     0     0
SMALL
bcc


@<TRIPOS>ATOM
      1 C1           5.9060     1.6110     0.7430 ca         1 B4J       0.101100
      2 C2           5.4350     2.3060    -0.3930 ca         1 B4J       0.136100
      3 C3           4.4660     1.7220    -1.1930 ca         1 B4J      -0.203000
      4 C4           3.9690     0.4570    -0.8920 ca         1 B4J      -0.096000
      5 C5           4.4330    -0.2330     0.2140 ca         1 B4J      -0.155600
      6 C6           5.3940     0.3630     1.0400 ca         1 B4J      -0.139000
      7 C7           3.9130    -1.5730     0.6080 c          1 B4J       0.689700
      8 N8           3.4400    -2.3330    -0.4000 ns         1 B4J      -0.576900
      9 C9           2.8100    -3.6170    -0.2210 c3         1 B4J       0.144300
     10 C10          1.3770    -3.6280    -0.6970 ca         1 B4J      -0.117300
     11 C11          0.8880    -4.7040    -1.4300 ca         1 B4J      -0.096000
     12 C12         -0.4330    -4.7300    -1.8540 ca         1 B4J      -0.136000
     13 C13         -1.2840    -3.6800    -1.5490 ca         1 B4J      -0.097000
     14 C14         -0.8080    -2.5970    -0.8110 ca         1 B4J      -0.150600
     15 C15          0.5210    -2.5760    -0.4010 ca         1 B4J      -0.057000
     16 C16         -1.6510    -1.4220    -0.4640 c          1 B4J       0.685700
     17 O17         -1.1760    -0.3480    -0.1370 o          1 B4J      -0.575100
     18 O18          6.8440     2.2520     1.4620 os         1 B4J      -0.298900
     19 C19          7.3700     1.6010     2.6020 c3         1 B4J       0.120700
     20 O20          5.9810     3.5120    -0.6000 os         1 B4J      -0.293900
     21 C21          5.5480     4.2630    -1.7190 c3         1 B4J       0.121700
     22 O22          3.9250    -1.9440     1.7740 o          1 B4J      -0.602100
     23 C23         -5.9030     0.3020    -0.1010 cc         1 B4J       0.386600
     24 C24         -5.1660     1.3930     0.2120 cd         1 B4J      -0.204700
     25 C25         -5.7350     2.7330     0.5370 c6         1 B4J       0.252100
     26 N26         -7.1540     2.6020     0.8150 n3         1 B4J      -0.712600
     27 C27         -7.8330     1.8190    -0.2050 c6         1 B4J       0.165800
     28 C28         -7.3910     0.3600    -0.1530 c6         1 B4J      -0.099700
     29 N29         -2.9980    -1.6000    -0.5180 ns         1 B4J      -0.531400
     30 C30         -3.9220    -0.6100    -0.2770 cd         1 B4J       0.537300
     31 S31         -3.4830     1.0070     0.1660 ss         1 B4J      -0.079300
     32 N32         -5.1910    -0.8360    -0.3720 nc         1 B4J      -0.703000
     33 H1           4.0770     2.2430    -2.0580 ha         1 B4J       0.140000
     34 H2           3.1940     0.0490    -1.5280 ha         1 B4J       0.133000
     35 H3           5.7360    -0.1770     1.9120 ha         1 B4J       0.159000
     36 H4           3.5730    -2.0240    -1.3490 hn         1 B4J       0.317500
     37 H5           3.3770    -4.3850    -0.7510 h1         1 B4J       0.067700
     38 H6           2.8510    -3.8710     0.8380 h1         1 B4J       0.067700
     39 H7           1.5480    -5.5260    -1.6820 ha         1 B4J       0.135000
     40 H8          -0.7980    -5.5650    -2.4360 ha         1 B4J       0.139000
     41 H9          -2.3000    -3.7140    -1.9210 ha         1 B4J       0.134000
     42 H10          0.8870    -1.7240     0.1590 ha         1 B4J       0.164000
     43 H11          6.5990     1.4070     3.3520 h1         1 B4J       0.042700
     44 H12          7.8560     0.6570     2.3430 h1         1 B4J       0.042700
     45 H13          8.1120     2.2740     3.0250 h1         1 B4J       0.042700
     46 H14          4.4790     4.4850    -1.6690 h1         1 B4J       0.042367
     47 H15          6.1030     5.1970    -1.6960 h1         1 B4J       0.042367
     48 H16          5.7590     3.7480    -2.6600 h1         1 B4J       0.042367
     49 H17         -5.2410     3.1620     1.4140 h1         1 B4J       0.042700
     50 H18         -5.5420     3.4300    -0.2980 h1         1 B4J       0.042700
     51 H20         -8.9080     1.8810    -0.0290 h1         1 B4J       0.034700
     52 H21         -7.6510     2.2200    -1.2160 h1         1 B4J       0.034700
     53 H22         -7.7630    -0.1710    -1.0320 hc         1 B4J       0.064200
     54 H23         -7.8210    -0.1350     0.7220 hc         1 B4J       0.064200
     55 H24         -3.3930    -2.5060    -0.7260 hn         1 B4J       0.342500
     56 H25         -7.7030     4.5360     0.0950 h1         1 B4J       0.031033
     57 H26         -8.8080     3.7930     1.2640 h1         1 B4J       0.031033
     58 H27         -7.2610     4.4370     1.8050 h1         1 B4J       0.031033
     59 C33         -7.7580     3.9030     0.9940 c3         1 B4J       0.152100
@<TRIPOS>BOND
     1     1     2 ar  
     2     1     6 ar  
     3     1    18 1   
     4     2     3 ar  
     5     2    20 1   
     6     3     4 ar  
     7     3    33 1   
     8     4     5 ar  
     9     4    34 1   
    10     5     6 ar  
    11     5     7 1   
    12     6    35 1   
    13     7     8 1   
    14     7    22 2   
    15     8     9 1   
    16     8    36 1   
    17     9    10 1   
    18     9    37 1   
    19     9    38 1   
    20    10    11 ar  
    21    10    15 ar  
    22    11    12 ar  
    23    11    39 1   
    24    12    13 ar  
    25    12    40 1   
    26    13    14 ar  
    27    13    41 1   
    28    14    15 ar  
    29    14    16 1   
    30    15    42 1   
    31    16    17 2   
    32    16    29 1   
    33    18    19 1   
    34    19    43 1   
    35    19    44 1   
    36    19    45 1   
    37    20    21 1   
    38    21    46 1   
    39    21    47 1   
    40    21    48 1   
    41    23    24 2   
    42    23    28 1   
    43    23    32 1   
    44    24    25 1   
    45    24    31 1   
    46    25    26 1   
    47    25    49 1   
    48    25    50 1   
    49    26    27 1   
    50    26    59 1   
    51    27    28 1   
    52    27    51 1   
    53    27    52 1   
    54    28    53 1   
    55    28    54 1   
    56    29    30 1   
    57    29    55 1   
    58    30    31 1   
    59    30    32 2   
    60    56    59 1   
    61    57    59 1   
    62    58    59 1   
@<TRIPOS>SUBSTRUCTURE
     1 B4J         1 TEMP              0 ****  ****    0 ROOT
