@<TRIPOS>MOLECULE
B4K
   33    35     1     0     0
SMALL
bcc


@<TRIPOS>ATOM
      1 C10         -0.8160    -0.3580     0.0070 cp         1 B4K       0.532800
      2 C13          1.9210    -0.3340     0.0350 ca         1 B4K      -0.372200
      3 C15         -3.0320    -1.5200     0.1740 ca         1 B4K      -0.106000
      4 C17         -5.0910    -0.2820    -0.0010 ca         1 B4K       0.060100
      5 C21         -2.9770     0.8540    -0.1720 ca         1 B4K      -0.096000
      6 C01          6.7050    -1.2340    -0.1740 c3         1 B4K      -0.181100
      7 O03          5.9860     1.0350     0.0490 o          1 B4K      -0.543100
      8 N04          4.3920    -0.5800     0.0190 ns         1 B4K      -0.475400
      9 C05          3.2440     0.1820     0.1510 cc         1 B4K       0.436500
     10 N06          3.2260     1.4630     0.4090 nd         1 B4K      -0.503100
     11 N07          1.9310     1.8220     0.4700 na         1 B4K      -0.115800
     12 C08          1.1020     0.7840     0.2530 ca         1 B4K       0.470800
     13 N09         -0.2230     0.8020     0.2490 nb         1 B4K      -0.691000
     14 C11         -0.0890    -1.5470    -0.2470 ca         1 B4K      -0.287300
     15 C12          1.2870    -1.5460    -0.2330 ca         1 B4K      -0.014000
     16 C14         -2.2930    -0.3540    -0.0020 cp         1 B4K      -0.153500
     17 C16         -4.4200    -1.4810     0.1750 ca         1 B4K      -0.189000
     18 C19         -4.3570     0.9010    -0.1780 ca         1 B4K       0.112100
     19 O20         -4.9700     2.0900    -0.3550 oh         1 B4K      -0.493100
     20 H1          -2.5460    -2.4720     0.3360 ha         1 B4K       0.134000
     21 H2          -2.4220     1.7730    -0.3070 ha         1 B4K       0.170000
     22 H3           6.2780    -2.2330    -0.2230 hc         1 B4K       0.063367
     23 H4           7.2870    -1.0640    -1.0800 hc         1 B4K       0.063367
     24 H5           7.3950    -1.1950     0.6680 hc         1 B4K       0.063367
     25 H6           4.2440    -1.5730    -0.0660 hn         1 B4K       0.322500
     26 H8          -0.6140    -2.4620    -0.4800 ha         1 B4K       0.143000
     27 H9           1.8380    -2.4560    -0.4360 ha         1 B4K       0.134000
     28 H10         -4.9830    -2.3950     0.3240 ha         1 B4K       0.133000
     29 H11         -6.8620    -1.0060     0.1460 ho         1 B4K       0.437000
     30 H12         -5.9280     1.9860    -0.3280 ho         1 B4K       0.442000
     31 H7           1.6860     2.7830     0.6450 hn         1 B4K       0.341700
     32 O18         -6.4340    -0.1580    -0.0160 oh         1 B4K      -0.515100
     33 C02          5.6810    -0.1380    -0.0260 c          1 B4K       0.673100
@<TRIPOS>BOND
     1     1    13 ar  
     2     1    14 ar  
     3     1    16 1   
     4     2     9 1   
     5     2    12 ar  
     6     2    15 ar  
     7     3    16 ar  
     8     3    17 ar  
     9     3    20 1   
    10     4    17 ar  
    11     4    18 ar  
    12     4    32 1   
    13     5    16 ar  
    14     5    18 ar  
    15     5    21 1   
    16     6    22 1   
    17     6    23 1   
    18     6    24 1   
    19     6    33 1   
    20     7    33 2   
    21     8     9 1   
    22     8    25 1   
    23     8    33 1   
    24     9    10 2   
    25    10    11 1   
    26    11    12 1   
    27    11    31 1   
    28    12    13 ar  
    29    14    15 ar  
    30    14    26 1   
    31    15    27 1   
    32    17    28 1   
    33    18    19 1   
    34    19    30 1   
    35    29    32 1   
@<TRIPOS>SUBSTRUCTURE
     1 B4K         1 TEMP              0 ****  ****    0 ROOT
