@<TRIPOS>MOLECULE
B4K
   33    35     1     0     0
SMALL
No Charge or Current Charge


@<TRIPOS>ATOM
      1 C10         -0.7670    -0.2770     0.0100 cp         1 B4K       0.467500
      2 C13          1.9540    -0.1120     0.0760 ca         1 B4K      -0.306900
      3 C15         -3.0040    -1.5070     0.1680 ca         1 B4K      -0.088000
      4 C17         -5.1260    -0.3340    -0.0480 ca         1 B4K       0.060100
      5 C21         -3.0260     0.8960    -0.2010 ca         1 B4K      -0.078000
      6 C01          6.5870    -1.4590    -0.2120 c3         1 B4K      -0.181100
      7 O03          6.1860     0.8430     0.3500 o          1 B4K      -0.543100
      8 N04          4.3570    -0.5060     0.0020 ns         1 B4K      -0.408400
      9 C05          3.3040     0.3560     0.2040 cc         1 B4K       0.436500
     10 N06          3.3800     1.6480     0.5230 nd         1 B4K      -0.503100
     11 N07          2.0250     2.0060     0.5990 na         1 B4K      -0.166100
     12 C08          1.1590     0.9660     0.3340 ca         1 B4K       0.405500
     13 N09         -0.1820     0.9130     0.3050 nb         1 B4K      -0.691000
     14 C11          0.0160    -1.4330    -0.2780 ca         1 B4K      -0.204000
     15 C12          1.4190    -1.3630    -0.2460 ca         1 B4K       0.004000
     16 C14         -2.2740    -0.2980    -0.0100 cp         1 B4K      -0.153500
     17 C16         -4.4100    -1.5240     0.1480 ca         1 B4K      -0.171000
     18 C19         -4.4300     0.8770    -0.2220 ca         1 B4K       0.112100
     19 O20         -5.1320     2.0330    -0.4110 oh         1 B4K      -0.532100
     20 H1          -2.4820    -2.4450     0.3410 ha         1 B4K       0.116000
     21 H2          -2.5190     1.8470    -0.3430 ha         1 B4K       0.152000
     22 H3           6.3080    -2.2750     0.4650 hc         1 B4K       0.063367
     23 H4           6.3230    -1.8680    -1.1940 hc         1 B4K       0.063367
     24 H5           7.6560    -1.2270    -0.1450 hc         1 B4K       0.063367
     25 H6           4.1240    -1.4580    -0.2340 hn         1 B4K       0.322500
     26 H8          -0.4610    -2.3710    -0.5380 ha         1 B4K       0.125000
     27 H9           2.0400    -2.2300    -0.4640 ha         1 B4K       0.116000
     28 H10         -4.9350    -2.4670     0.2900 ha         1 B4K       0.115000
     29 H11         -6.8040    -1.2730     0.0680 ho         1 B4K       0.476000
     30 H12         -6.0830     1.7790    -0.3880 ho         1 B4K       0.481000
     31 H7           1.7310     2.9510     0.8290 hn         1 B4K       0.392000
     32 O18         -6.4960    -0.3500    -0.0680 oh         1 B4K      -0.554100
     33 C02          5.7060    -0.2480     0.0770 c          1 B4K       0.606100
@<TRIPOS>BOND
     1     1    13 ar  
     2     1    14 ar  
     3     1    16 1   
     4     2     9 1   
     5     2    12 ar  
     6     2    15 ar  
     7     3    16 ar  
     8     3    17 ar  
     9     3    20 1   
    10     4    17 ar  
    11     4    18 ar  
    12     4    32 1   
    13     5    16 ar  
    14     5    18 ar  
    15     5    21 1   
    16     6    22 1   
    17     6    23 1   
    18     6    24 1   
    19     6    33 1   
    20     7    33 2   
    21     8     9 1   
    22     8    25 1   
    23     8    33 1   
    24     9    10 2   
    25    10    11 1   
    26    11    12 1   
    27    11    31 1   
    28    12    13 ar  
    29    14    15 ar  
    30    14    26 1   
    31    15    27 1   
    32    17    28 1   
    33    18    19 1   
    34    19    30 1   
    35    29    32 1   
@<TRIPOS>SUBSTRUCTURE
     1 B4K         1 TEMP              0 ****  ****    0 ROOT
