@<TRIPOS>MOLECULE
B4L
   38    40     1     0     0
SMALL
No Charge or Current Charge


@<TRIPOS>ATOM
      1 C10         -3.8130    -2.4960     0.4480 cc         1 B4L      -0.141000
      2 C13          1.9130     0.3270     0.5020 c6         1 B4L       0.242500
      3 C17          4.3270     0.5290     1.2780 c6         1 B4L      -0.072400
      4 N01          0.6900     1.1070     0.2020 nu         1 B4L      -0.907400
      5 C02         -0.5840     0.6100     0.1430 cc         1 B4L       0.708800
      6 C04         -2.9080     1.0400    -0.3010 c          1 B4L       0.614600
      7 C06         -3.0480    -0.3670     0.0290 cc         1 B4L      -0.330600
      8 C07         -2.0060    -1.1570     0.3780 cd         1 B4L       0.186400
      9 C09         -2.4550    -2.4590     0.6380 cd         1 B4L      -0.192000
     10 N11         -4.1790    -1.1960     0.0710 na         1 B4L      -0.078000
     11 C12         -1.3140     2.9250    -0.5370 c3         1 B4L       0.061300
     12 C14          2.4490    -0.4030    -0.7720 c6         1 B4L       0.140800
     13 C16          4.7870    -0.1830    -0.0190 c6         1 B4L       0.161800
     14 C18          2.9950     1.2850     1.0580 c6         1 B4L      -0.087400
     15 N03         -1.5930     1.4950    -0.2220 n          1 B4L      -0.351300
     16 N08         -0.7170    -0.6750     0.4460 nd         1 B4L      -0.668100
     17 N15          3.7440    -1.1130    -0.5300 n3         1 B4L      -0.709600
     18 O05         -3.8620     1.7410    -0.6140 o          1 B4L      -0.568000
     19 H1          -4.5270    -3.3060     0.5460 h4         1 B4L       0.146000
     20 H2           1.7160    -0.4370     1.2710 h1         1 B4L       0.101700
     21 H3           4.2070    -0.2120     2.0800 hc         1 B4L       0.051700
     22 H4           5.1050     1.2290     1.6110 hc         1 B4L       0.051700
     23 H5           0.7750     2.0870    -0.0370 hn         1 B4L       0.487000
     24 H6          -1.8310    -3.2950     0.9370 ha         1 B4L       0.147000
     25 H7          -5.1290    -0.8990    -0.1420 hn         1 B4L       0.362000
     26 H8          -0.6270     2.9890    -1.3900 h1         1 B4L       0.054700
     27 H9          -2.2270     3.4760    -0.7960 h1         1 B4L       0.054700
     28 H10         -0.8610     3.4150     0.3350 h1         1 B4L       0.054700
     29 H11          1.6870    -1.1190    -1.1120 h1         1 B4L       0.039700
     30 H12          2.5730     0.3360    -1.5780 h1         1 B4L       0.039700
     31 H13          5.0260     0.5750    -0.7800 h1         1 B4L       0.031200
     32 H14          5.7160    -0.7330     0.1920 h1         1 B4L       0.031200
     33 H15          3.1600     2.1160     0.3570 hc         1 B4L       0.042200
     34 H16          2.6570     1.7290     2.0040 hc         1 B4L       0.042200
     35 H17          5.1140    -2.4350    -1.4850 h1         1 B4L       0.031367
     36 H18          3.4310    -2.5960    -2.0270 h1         1 B4L       0.031367
     37 H19          4.4050    -1.2030    -2.5570 h1         1 B4L       0.031367
     38 C19          4.1980    -1.8750    -1.7130 c3         1 B4L       0.155100
@<TRIPOS>BOND
     1     1     9 2   
     2     1    10 1   
     3     1    19 1   
     4     2     4 1   
     5     2    12 1   
     6     2    14 1   
     7     2    20 1   
     8     3    13 1   
     9     3    14 1   
    10     3    21 1   
    11     3    22 1   
    12     4     5 1   
    13     4    23 1   
    14     5    15 1   
    15     5    16 2   
    16     6     7 1   
    17     6    15 1   
    18     6    18 2   
    19     7     8 2   
    20     7    10 1   
    21     8     9 1   
    22     8    16 1   
    23     9    24 1   
    24    10    25 1   
    25    11    15 1   
    26    11    26 1   
    27    11    27 1   
    28    11    28 1   
    29    12    17 1   
    30    12    29 1   
    31    12    30 1   
    32    13    17 1   
    33    13    31 1   
    34    13    32 1   
    35    14    33 1   
    36    14    34 1   
    37    17    38 1   
    38    35    38 1   
    39    36    38 1   
    40    37    38 1   
@<TRIPOS>SUBSTRUCTURE
     1 B4L         1 TEMP              0 ****  ****    0 ROOT
