@<TRIPOS>MOLECULE
B4L
   38    40     1     0     0
SMALL
bcc


@<TRIPOS>ATOM
      1 C10         -3.7370    -2.4420     0.3550 cc         1 B4L      -0.108300
      2 C13          1.9290     0.3880     0.5450 c6         1 B4L       0.242500
      3 C17          4.3270     0.5550     1.2230 c6         1 B4L      -0.072400
      4 N01          0.7250     1.1550     0.2940 nu         1 B4L      -0.852200
      5 C02         -0.4960     0.5840     0.1820 cc         1 B4L       0.708800
      6 C04         -2.8570     0.9710    -0.3300 c          1 B4L       0.757100
      7 C06         -2.9820    -0.4010    -0.0100 cc         1 B4L      -0.279900
      8 C07         -1.8950    -1.1740     0.3690 cd         1 B4L       0.186400
      9 C09         -2.3820    -2.4840     0.6020 cd         1 B4L      -0.210000
     10 N11         -4.0960    -1.1940    -0.0130 na         1 B4L      -0.129100
     11 C12         -1.2610     2.8210    -0.4840 c3         1 B4L       0.061300
     12 C14          2.4030    -0.3330    -0.7170 c6         1 B4L       0.140800
     13 C16          4.6970    -0.1700    -0.0610 c6         1 B4L       0.161800
     14 C18          3.0190     1.3190     1.0590 c6         1 B4L      -0.087400
     15 N03         -1.5340     1.4190    -0.2000 n          1 B4L      -0.418300
     16 N08         -0.6350    -0.6800     0.4610 nd         1 B4L      -0.668100
     17 N15          3.6300    -1.0640    -0.4710 n3         1 B4L      -0.709600
     18 O05         -3.7620     1.7200    -0.6790 o          1 B4L      -0.643500
     19 H1          -4.4710    -3.2290     0.4210 h4         1 B4L       0.164000
     20 H2           1.7070    -0.3600     1.3090 h1         1 B4L       0.101700
     21 H3           4.2300    -0.1730     2.0330 hc         1 B4L       0.051700
     22 H4           5.1300     1.2410     1.5010 hc         1 B4L       0.051700
     23 H5           0.8700     2.0750    -0.0860 hn         1 B4L       0.431800
     24 H6          -1.8160    -3.3490     0.9120 ha         1 B4L       0.165000
     25 H7          -5.0300    -0.8970    -0.2420 hn         1 B4L       0.311700
     26 H8          -0.5870     2.9240    -1.3350 h1         1 B4L       0.054700
     27 H9          -2.1920     3.3160    -0.7330 h1         1 B4L       0.054700
     28 H10         -0.8300     3.3170     0.3850 h1         1 B4L       0.054700
     29 H11          1.6300    -1.0320    -1.0440 h1         1 B4L       0.039700
     30 H12          2.5300     0.4160    -1.5210 h1         1 B4L       0.039700
     31 H13          4.9220     0.5740    -0.8480 h1         1 B4L       0.031200
     32 H14          5.6070    -0.7560     0.0900 h1         1 B4L       0.031200
     33 H15          3.1640     2.1340     0.3400 hc         1 B4L       0.042200
     34 H16          2.7120     1.7750     2.0030 hc         1 B4L       0.042200
     35 H17          4.9150    -2.4210    -1.4020 h1         1 B4L       0.031367
     36 H18          3.2170    -2.5760    -1.8520 h1         1 B4L       0.031367
     37 H19          4.1910    -1.2580    -2.5230 h1         1 B4L       0.031367
     38 C19          4.0060    -1.8580    -1.6180 c3         1 B4L       0.155100
@<TRIPOS>BOND
     1     1     9 2   
     2     1    10 1   
     3     1    19 1   
     4     2     4 1   
     5     2    12 1   
     6     2    14 1   
     7     2    20 1   
     8     3    13 1   
     9     3    14 1   
    10     3    21 1   
    11     3    22 1   
    12     4     5 1   
    13     4    23 1   
    14     5    15 1   
    15     5    16 2   
    16     6     7 1   
    17     6    15 1   
    18     6    18 2   
    19     7     8 2   
    20     7    10 1   
    21     8     9 1   
    22     8    16 1   
    23     9    24 1   
    24    10    25 1   
    25    11    15 1   
    26    11    26 1   
    27    11    27 1   
    28    11    28 1   
    29    12    17 1   
    30    12    29 1   
    31    12    30 1   
    32    13    17 1   
    33    13    31 1   
    34    13    32 1   
    35    14    33 1   
    36    14    34 1   
    37    17    38 1   
    38    35    38 1   
    39    36    38 1   
    40    37    38 1   
@<TRIPOS>SUBSTRUCTURE
     1 B4L         1 TEMP              0 ****  ****    0 ROOT
