@<TRIPOS>MOLECULE
B4M
    5     4     1     0     0
SMALL
No Charge or Current Charge


@<TRIPOS>ATOM
      1 C1          -0.0280     0.0050    -0.5950 c3         1 B4M       0.416300
      2 Br2          1.6160     0.9290     0.0430 br         1 B4M      -0.182000
      3 Br1         -0.0680    -1.8650     0.0880 br         1 B4M      -0.182000
      4 Br3         -1.6450     0.9900     0.0210 br         1 B4M      -0.182000
      5 H1          -0.0210    -0.0170    -1.6880 h3         1 B4M       0.130700
@<TRIPOS>BOND
     1     1     2 1   
     2     1     3 1   
     3     1     4 1   
     4     1     5 1   
@<TRIPOS>SUBSTRUCTURE
     1 B4M         1 TEMP              0 ****  ****    0 ROOT
