@<TRIPOS>MOLECULE
B4M
    5     4     1     0     0
SMALL
abcg2


@<TRIPOS>ATOM
      1 C1          -0.0280     0.0050    -0.5700 c3         1 B4M       0.416300
      2 BR2          1.5690     0.9020     0.0250 br         1 B4M      -0.182000
      3 BR1         -0.0670    -1.8110     0.0690 br         1 B4M      -0.182000
      4 BR3         -1.5990     0.9610     0.0040 br         1 B4M      -0.182000
      5 H1          -0.0210    -0.0170    -1.6590 h3         1 B4M       0.130700
@<TRIPOS>BOND
     1     1     2 1   
     2     1     3 1   
     3     1     4 1   
     4     1     5 1   
@<TRIPOS>SUBSTRUCTURE
     1 B4M         1 TEMP              0 ****  ****    0 ROOT
