@<TRIPOS>MOLECULE
B4N
   31    32     1     0     0
SMALL
No Charge or Current Charge


@<TRIPOS>ATOM
      1 CAG         -3.0950    -0.3710    -0.8090 ca         1 B4N      -0.200750
      2 CAK         -4.4850    -0.4390    -1.0040 ca         1 B4N      -0.011500
      3 CAS         -5.3710    -0.0730     0.0350 ca         1 B4N      -0.252700
      4 NAU         -6.8530    -0.1450    -0.1710 no         1 B4N       0.708200
      5 OAD         -7.2740    -0.5290    -1.2690 o          1 B4N      -0.431250
      6 OAA         -7.5910     0.1850     0.7670 o          1 B4N      -0.431250
      7 CAL         -4.8400     0.3600     1.2710 ca         1 B4N      -0.011500
      8 CAH         -3.4490     0.4240     1.4560 ca         1 B4N      -0.200750
      9 CAQ         -2.5710     0.0620     0.4260 ca         1 B4N       0.300100
     10 OAO         -1.2280     0.1510     0.6830 os         1 B4N      -0.448500
     11 PAW         -0.0130    -0.2000    -0.3150 p5         1 B4N       1.399800
     12 OAF         -0.0150    -1.6460    -0.6940 o          1 B4N      -0.779000
     13 OAC         -0.0140     0.6920    -1.5140 o          1 B4N      -0.779000
     14 OAP          1.2070     0.1480     0.6790 os         1 B4N      -0.448500
     15 CAR          2.5480     0.0550     0.4180 ca         1 B4N       0.300100
     16 CAI          3.4310     0.4140     1.4450 ca         1 B4N      -0.200750
     17 CAM          4.8220     0.3470     1.2550 ca         1 B4N      -0.011500
     18 CAT          5.3470    -0.0880     0.0170 ca         1 B4N      -0.252700
     19 NAV          6.8280    -0.1630    -0.1930 no         1 B4N       0.708200
     20 OAE          7.5700     0.1640     0.7420 o          1 B4N      -0.431250
     21 OAB          7.2440    -0.5490    -1.2930 o          1 B4N      -0.431250
     22 CAN          4.4570    -0.4500    -1.0190 ca         1 B4N      -0.011500
     23 CAJ          3.0670    -0.3790    -0.8190 ca         1 B4N      -0.200750
     24 HAG         -2.4440    -0.6590    -1.6280 ha         1 B4N       0.143500
     25 HAK         -4.8650    -0.7760    -1.9680 ha         1 B4N       0.136500
     26 HAL         -5.4960     0.6480     2.0920 ha         1 B4N       0.136500
     27 HAH         -3.0460     0.7570     2.4080 ha         1 B4N       0.143500
     28 HAI          3.0320     0.7490     2.3990 ha         1 B4N       0.143500
     29 HAM          5.4800     0.6330     2.0740 ha         1 B4N       0.136500
     30 HAN          4.8320    -0.7890    -1.9840 ha         1 B4N       0.136500
     31 HAJ          2.4130    -0.6650    -1.6360 ha         1 B4N       0.143500
@<TRIPOS>BOND
     1     1     2 ar  
     2     1     9 ar  
     3     1    24 1   
     4     2     3 ar  
     5     2    25 1   
     6     3     4 1   
     7     3     7 ar  
     8     4     5 1   
     9     4     6 1   
    10     7     8 ar  
    11     7    26 1   
    12     8     9 ar  
    13     8    27 1   
    14     9    10 1   
    15    10    11 1   
    16    11    12 1   
    17    11    13 1   
    18    11    14 1   
    19    14    15 1   
    20    15    16 ar  
    21    15    23 ar  
    22    16    17 ar  
    23    16    28 1   
    24    17    18 ar  
    25    17    29 1   
    26    18    19 1   
    27    18    22 ar  
    28    19    20 1   
    29    19    21 1   
    30    22    23 ar  
    31    22    30 1   
    32    23    31 1   
@<TRIPOS>SUBSTRUCTURE
     1 B4N         1 TEMP              0 ****  ****    0 ROOT
