@<TRIPOS>MOLECULE
B4N
   31    32     1     0     0
SMALL
bcc


@<TRIPOS>ATOM
      1 CAG         -3.0930    -0.5770    -0.7900 ca         1 B4N      -0.218750
      2 CAK         -4.4610    -0.4820    -0.9570 ca         1 B4N      -0.029500
      3 CAS         -5.2470     0.0310     0.0650 ca         1 B4N      -0.252700
      4 NAU         -6.6780     0.1260    -0.1140 no         1 B4N       0.328200
      5 OAD         -7.1490    -0.2450    -1.1660 o          1 B4N      -0.241250
      6 OAA         -7.3400     0.5730     0.7950 o          1 B4N      -0.241250
      7 CAL         -4.6760     0.4510     1.2620 ca         1 B4N      -0.029500
      8 CAH         -3.3110     0.3600     1.4250 ca         1 B4N      -0.218750
      9 CAQ         -2.5060    -0.1530     0.4050 ca         1 B4N       0.300100
     10 OAO         -1.1910    -0.2190     0.6570 os         1 B4N      -0.448500
     11 PAW         -0.0170    -0.3600    -0.5190 p5         1 B4N       1.399800
     12 OAF          0.0030    -1.7510    -1.0450 o          1 B4N      -0.779000
     13 OAC         -0.0470     0.8390    -1.3950 o          1 B4N      -0.779000
     14 OAP          1.1670    -0.1780     0.6400 os         1 B4N      -0.448500
     15 CAR          2.4820    -0.1310     0.3860 ca         1 B4N       0.300100
     16 CAI          3.2950     0.3500     1.4170 ca         1 B4N      -0.218750
     17 CAM          4.6620     0.4220     1.2540 ca         1 B4N      -0.029500
     18 CAT          5.2260     0.0180     0.0500 ca         1 B4N      -0.252700
     19 NAV          6.6580     0.0930    -0.1290 no         1 B4N       0.328200
     20 OAE          7.3280     0.5020     0.7920 o          1 B4N      -0.241250
     21 OAB          7.1220    -0.2580    -1.1900 o          1 B4N      -0.241250
     22 CAN          4.4310    -0.4620    -0.9830 ca         1 B4N      -0.029500
     23 CAJ          3.0620    -0.5390    -0.8170 ca         1 B4N      -0.218750
     24 HAG         -2.5030    -1.0050    -1.5880 ha         1 B4N       0.161500
     25 HAK         -4.9000    -0.8170    -1.8850 ha         1 B4N       0.154500
     26 HAL         -5.2800     0.8510     2.0630 ha         1 B4N       0.154500
     27 HAH         -2.8550     0.6890     2.3490 ha         1 B4N       0.161500
     28 HAI          2.8450     0.6670     2.3480 ha         1 B4N       0.161500
     29 HAM          5.2720     0.7970     2.0630 ha         1 B4N       0.154500
     30 HAN          4.8650    -0.7850    -1.9170 ha         1 B4N       0.154500
     31 HAJ          2.4660    -0.9390    -1.6250 ha         1 B4N       0.161500
@<TRIPOS>BOND
     1     1     2 ar  
     2     1     9 ar  
     3     1    24 1   
     4     2     3 ar  
     5     2    25 1   
     6     3     4 1   
     7     3     7 ar  
     8     4     5 1   
     9     4     6 1   
    10     7     8 ar  
    11     7    26 1   
    12     8     9 ar  
    13     8    27 1   
    14     9    10 1   
    15    10    11 1   
    16    11    12 1   
    17    11    13 1   
    18    11    14 1   
    19    14    15 1   
    20    15    16 ar  
    21    15    23 ar  
    22    16    17 ar  
    23    16    28 1   
    24    17    18 ar  
    25    17    29 1   
    26    18    19 1   
    27    18    22 ar  
    28    19    20 1   
    29    19    21 1   
    30    22    23 ar  
    31    22    30 1   
    32    23    31 1   
@<TRIPOS>SUBSTRUCTURE
     1 B4N         1 TEMP              0 ****  ****    0 ROOT
