@<TRIPOS>MOLECULE
B4O
   32    33     1     0     0
SMALL
No Charge or Current Charge


@<TRIPOS>ATOM
      1 C1          -1.8620    -0.0310     1.2550 c6         1 B4O      -0.068400
      2 C2          -1.8810    -0.1340    -1.3200 c6         1 B4O      -0.068400
      3 C3          -3.3550    -0.4480     1.2740 c6         1 B4O      -0.074400
      4 C4          -3.3740    -0.5490    -1.2840 c6         1 B4O      -0.074400
      5 C5          -4.0810     0.0020    -0.0200 c6         1 B4O      -0.076400
      6 C9           2.2340     1.3220    -0.1620 c          1 B4O       0.535200
      7 N            0.8460     1.0410    -0.1180 n          1 B4O      -0.119500
      8 O           -0.0400     2.1840    -0.1550 oh         1 B4O      -0.452100
      9 C10          3.1040     0.1470    -0.1200 cc         1 B4O      -0.335200
     10 C8           2.6590    -1.1510    -0.0410 cd         1 B4O       0.039800
     11 C11          3.6010    -2.3250    -0.0010 c3         1 B4O      -0.061900
     12 C7           1.2370    -1.3460    -0.0040 cd         1 B4O      -0.316000
     13 C6           0.3570    -0.2760    -0.0430 cc         1 B4O       0.113400
     14 C           -1.1480    -0.5740    -0.0180 c6         1 B4O      -0.022500
     15 H1          -1.8030     1.0630     1.3090 hc         1 B4O       0.052200
     16 H2          -1.3610    -0.4140     2.1550 hc         1 B4O       0.052200
     17 H3          -1.3930    -0.5900    -2.1930 hc         1 B4O       0.052200
     18 H4          -1.8190     0.9510    -1.4640 hc         1 B4O       0.052200
     19 H5          -3.4340    -1.5390     1.3820 hc         1 B4O       0.039950
     20 H6          -3.8520    -0.0120     2.1510 hc         1 B4O       0.039950
     21 H7          -3.8830    -0.1830    -2.1850 hc         1 B4O       0.039950
     22 H8          -3.4550    -1.6450    -1.3050 hc         1 B4O       0.039950
     23 H9          -5.1240    -0.3400     0.0020 hc         1 B4O       0.042700
     24 H10         -4.1130     1.0990    -0.0630 hc         1 B4O       0.042700
     25 H11         -0.0480     2.5190     0.7700 ho         1 B4O       0.497000
     26 H12          4.1630     0.3740    -0.1550 ha         1 B4O       0.213000
     27 H13          3.7240    -2.7590    -1.0000 hc         1 B4O       0.051700
     28 H14          4.5930    -2.0330     0.3630 hc         1 B4O       0.051700
     29 H15          3.2250    -3.1120     0.6630 hc         1 B4O       0.051700
     30 H16          0.8530    -2.3600     0.0530 ha         1 B4O       0.200000
     31 H17         -1.2690    -1.6650     0.0270 hc         1 B4O       0.055700
     32 O1           2.6840     2.4610    -0.2200 o          1 B4O      -0.594000
@<TRIPOS>BOND
     1     1     3 1   
     2     1    14 1   
     3     1    15 1   
     4     1    16 1   
     5     2     4 1   
     6     2    14 1   
     7     2    17 1   
     8     2    18 1   
     9     3     5 1   
    10     3    19 1   
    11     3    20 1   
    12     4     5 1   
    13     4    21 1   
    14     4    22 1   
    15     5    23 1   
    16     5    24 1   
    17     6     7 1   
    18     6     9 1   
    19     6    32 2   
    20     7     8 1   
    21     7    13 1   
    22     8    25 1   
    23     9    10 2   
    24     9    26 1   
    25    10    11 1   
    26    10    12 1   
    27    11    27 1   
    28    11    28 1   
    29    11    29 1   
    30    12    13 2   
    31    12    30 1   
    32    13    14 1   
    33    14    31 1   
@<TRIPOS>SUBSTRUCTURE
     1 B4O         1 TEMP              0 ****  ****    0 ROOT
