@<TRIPOS>MOLECULE
B4O
   32    33     1     0     0
SMALL
abcg2


@<TRIPOS>ATOM
      1 C1          -1.8820    -0.1060     1.2560 c6         1 B4O      -0.068400
      2 C2          -1.8780    -0.0890    -1.2900 c6         1 B4O      -0.068400
      3 C3          -3.3520    -0.5170     1.2360 c6         1 B4O      -0.074400
      4 C4          -3.3470    -0.5010    -1.2790 c6         1 B4O      -0.074400
      5 C5          -4.0530    -0.0100    -0.0200 c6         1 B4O      -0.076400
      6 C9           2.1540     1.2800     0.0020 c          1 B4O       0.535200
      7 N            0.8100     0.9300    -0.0050 n          1 B4O      -0.119500
      8 O           -0.0360     1.9910    -0.0000 oh         1 B4O      -0.452100
      9 C10          3.0540     0.1860    -0.0030 cc         1 B4O      -0.335200
     10 C8           2.6030    -1.1080    -0.0130 cd         1 B4O       0.039800
     11 C11          3.5540    -2.2630    -0.0180 c3         1 B4O      -0.061900
     12 C7           1.2150    -1.3540    -0.0180 cd         1 B4O      -0.316000
     13 C6           0.3100    -0.3240    -0.0140 cc         1 B4O       0.113400
     14 C           -1.1710    -0.5830    -0.0190 c6         1 B4O      -0.022500
     15 H1          -1.8150     0.9790     1.3520 hc         1 B4O       0.052200
     16 H2          -1.3850    -0.5330     2.1310 hc         1 B4O       0.052200
     17 H3          -1.3780    -0.5060    -2.1680 hc         1 B4O       0.052200
     18 H4          -1.8100     0.9970    -1.3710 hc         1 B4O       0.052200
     19 H5          -3.4290    -1.6090     1.2820 hc         1 B4O       0.039950
     20 H6          -3.8490    -0.1330     2.1300 hc         1 B4O       0.039950
     21 H7          -3.8410    -0.1060    -2.1700 hc         1 B4O       0.039950
     22 H8          -3.4240    -1.5920    -1.3400 hc         1 B4O       0.039950
     23 H9          -5.0990    -0.3250    -0.0240 hc         1 B4O       0.042700
     24 H10         -4.0560     1.0850    -0.0130 hc         1 B4O       0.042700
     25 H11          0.5970     2.7440     0.0070 ho         1 B4O       0.497000
     26 H12          4.1120     0.4130     0.0020 ha         1 B4O       0.213000
     27 H13          3.3970    -2.8880    -0.8980 hc         1 B4O       0.051700
     28 H14          4.5900    -1.9330    -0.0150 hc         1 B4O       0.051700
     29 H15          3.3940    -2.8970     0.8550 hc         1 B4O       0.051700
     30 H16          0.8400    -2.3680    -0.0260 ha         1 B4O       0.200000
     31 H17         -1.2520    -1.6750    -0.0260 hc         1 B4O       0.055700
     32 O1           2.4140     2.4930     0.0110 o          1 B4O      -0.594000
@<TRIPOS>BOND
     1     1     3 1   
     2     1    14 1   
     3     1    15 1   
     4     1    16 1   
     5     2     4 1   
     6     2    14 1   
     7     2    17 1   
     8     2    18 1   
     9     3     5 1   
    10     3    19 1   
    11     3    20 1   
    12     4     5 1   
    13     4    21 1   
    14     4    22 1   
    15     5    23 1   
    16     5    24 1   
    17     6     7 1   
    18     6     9 1   
    19     6    32 2   
    20     7     8 1   
    21     7    13 1   
    22     8    25 1   
    23     9    10 2   
    24     9    26 1   
    25    10    11 1   
    26    10    12 1   
    27    11    27 1   
    28    11    28 1   
    29    11    29 1   
    30    12    13 2   
    31    12    30 1   
    32    13    14 1   
    33    14    31 1   
@<TRIPOS>SUBSTRUCTURE
     1 B4O         1 TEMP              0 ****  ****    0 ROOT
