@<TRIPOS>MOLECULE
B4P
   77    82     1     0     0
SMALL
No Charge or Current Charge


@<TRIPOS>ATOM
      1 PA           1.0450    -0.1340    -1.7830 p5         1 B4P       1.467800
      2 O1A          1.4510    -1.4820    -1.2790 o          1 B4P      -0.863750
      3 O2A         -0.3440    -0.1400    -2.3270 o          1 B4P      -0.863750
      4 O3A          1.3430     1.0690    -0.8080 os         1 B4P      -0.696800
      5 PB           0.4360     1.1970     0.4770 p5         1 B4P       1.547800
      6 O1B          1.1780     2.0750     1.4340 o          1 B4P      -0.884500
      7 O2B          0.1130    -0.1200     1.1020 o          1 B4P      -0.884500
      8 O3B         -0.8010     1.8980    -0.1990 os         1 B4P      -0.706800
      9 PG          -1.6670     2.7700     0.7830 p5         1 B4P       1.547800
     10 O1G         -1.9080     2.1350     2.1140 o          1 B4P      -0.884500
     11 O2G         -1.1050     4.1530     0.8690 o          1 B4P      -0.884500
     12 O3G         -2.9750     2.6760    -0.0950 os         1 B4P      -0.696800
     13 PD          -3.9670     3.8780     0.1240 p5         1 B4P       1.467800
     14 O1D         -4.2030     4.2770     1.5430 o          1 B4P      -0.863750
     15 O2D         -3.6450     5.0440    -0.7550 o          1 B4P      -0.863750
     16 O5E          2.0360     0.3240    -2.9740 os         1 B4P      -0.553400
     17 C5E          3.4460     0.0350    -2.9710 c3         1 B4P       0.233600
     18 C4E          4.2050     0.8180    -1.8590 c5         1 B4P       0.150300
     19 O4E          4.3380     0.0230    -0.6610 os         1 B4P      -0.380500
     20 C3E          5.6940     1.1270    -2.1960 c5         1 B4P       0.083300
     21 O3E          5.8680     2.1710    -3.1700 oh         1 B4P      -0.712500
     22 C2E          6.1960     1.5740    -0.7920 c5         1 B4P       0.073300
     23 O2E          5.8460     2.9520    -0.5940 oh         1 B4P      -0.711000
     24 C1E          5.3990     0.5840     0.1450 c5         1 B4P       0.328300
     25 N9A          6.1490    -0.5210     0.7420 na         1 B4P      -0.310300
     26 C8A          7.2080    -1.2170     0.1440 cc         1 B4P       0.454700
     27 N7A          7.7090    -2.1550     0.9730 nd         1 B4P      -0.524600
     28 C5A          6.9210    -2.0250     2.1200 ca         1 B4P      -0.052100
     29 C6A          6.9790    -2.7420     3.3350 ca         1 B4P       0.439900
     30 N6A          7.8760    -3.7380     3.5690 nv         1 B4P      -1.061400
     31 N1A          6.1390    -2.4640     4.3450 nb         1 B4P      -0.337000
     32 C2A          5.2460    -1.4700     4.1200 ca         1 B4P       0.140400
     33 N3A          5.1180    -0.7350     2.9890 nb         1 B4P      -0.243500
     34 C4A          5.9770    -1.0380     1.9950 ca         1 B4P       0.099500
     35 O5F         -5.2840     3.1480    -0.4530 os         1 B4P      -0.553400
     36 C5F         -6.0030     2.2490     0.3980 c3         1 B4P       0.233600
     37 C4F         -6.9630     1.3840    -0.4750 c5         1 B4P       0.150300
     38 O4F         -6.2660     0.2360    -1.0220 os         1 B4P      -0.380500
     39 C3F         -8.1370     0.7300     0.3230 c5         1 B4P       0.083300
     40 O3F         -9.1680     0.2030    -0.5220 oh         1 B4P      -0.712500
     41 C2F         -7.3710    -0.4250     1.0350 c5         1 B4P       0.073300
     42 O2F         -8.2720    -1.4670     1.4630 oh         1 B4P      -0.711000
     43 C1F         -6.3570    -0.8720    -0.0910 c5         1 B4P       0.328300
     44 N9B         -5.0040    -1.2820     0.2990 na         1 B4P      -0.310300
     45 C8B         -4.3270    -0.9320     1.4770 cc         1 B4P       0.454700
     46 N7B         -3.0610    -1.3850     1.4680 nd         1 B4P      -0.524600
     47 C5B         -2.9590    -2.0390     0.2390 ca         1 B4P      -0.052100
     48 C6B         -1.8420    -2.6690    -0.3480 ca         1 B4P       0.439900
     49 N6B         -0.6090    -2.6410     0.2120 nv         1 B4P      -1.061400
     50 N1B         -1.9330    -3.2630    -1.5500 nb         1 B4P      -0.337000
     51 C2B         -3.1470    -3.2060    -2.1490 ca         1 B4P       0.140400
     52 N3B         -4.2600    -2.5960    -1.6730 nb         1 B4P      -0.243500
     53 C4B         -4.1340    -2.0080    -0.4660 ca         1 B4P       0.099500
     54 H51A         3.8630     0.3250    -3.9440 h1         1 B4P       0.003700
     55 H52A         3.6270    -1.0410    -2.8550 h1         1 B4P       0.003700
     56 H4E          3.6630     1.7440    -1.6280 h1         1 B4P       0.078700
     57 H3E          6.2050     0.2090    -2.5220 h1         1 B4P       0.040700
     58 HO3A         6.6660     1.9480    -3.7060 ho         1 B4P       0.486500
     59 H2E          7.2830     1.4430    -0.6930 h1         1 B4P       0.065200
     60 HO2A         5.7420     3.2920    -1.5180 ho         1 B4P       0.493500
     61 H1E          4.9670     1.1460     0.9830 h2         1 B4P       0.092200
     62 H8A          7.5550    -1.0060    -0.8620 h5         1 B4P       0.143800
     63 H61A         8.0500    -4.0040     4.5340 hn         1 B4P       0.506250
     64 H62A         8.6570    -3.8230     2.9230 hn         1 B4P       0.506250
     65 H2A          4.5610    -1.2370     4.9320 h5         1 B4P      -0.004400
     66 H51B        -5.3190     1.6060     0.9650 h1         1 B4P       0.003700
     67 H52B        -6.6030     2.8230     1.1150 h1         1 B4P       0.003700
     68 H4F         -7.3430     2.0060    -1.2950 h1         1 B4P       0.078700
     69 H3F         -8.5680     1.4320     1.0500 h1         1 B4P       0.040700
     70 HO3B        -9.3730    -0.6790    -0.1260 ho         1 B4P       0.486500
     71 H2F         -6.8360    -0.0180     1.9020 h1         1 B4P       0.065200
     72 HO2B        -8.5720    -1.2480     2.3780 ho         1 B4P       0.493500
     73 H1F         -6.7790    -1.7320    -0.6250 h2         1 B4P       0.092200
     74 H8B         -4.7780    -0.3500     2.2730 h5         1 B4P       0.143800
     75 H61B        -0.5040    -1.8240     0.8300 hn         1 B4P       0.506250
     76 H62B         0.1510    -2.5680    -0.4720 hn         1 B4P       0.506250
     77 H2B         -3.2340    -3.6860    -3.1220 h5         1 B4P      -0.004400
@<TRIPOS>BOND
     1     1     2 1   
     2     1     3 1   
     3     1     4 1   
     4     1    16 1   
     5     4     5 1   
     6     5     6 1   
     7     5     7 1   
     8     5     8 1   
     9     8     9 1   
    10     9    10 1   
    11     9    11 1   
    12     9    12 1   
    13    12    13 1   
    14    13    14 1   
    15    13    15 1   
    16    13    35 1   
    17    16    17 1   
    18    17    18 1   
    19    17    54 1   
    20    17    55 1   
    21    18    19 1   
    22    18    20 1   
    23    18    56 1   
    24    19    24 1   
    25    20    21 1   
    26    20    22 1   
    27    20    57 1   
    28    21    58 1   
    29    22    23 1   
    30    22    24 1   
    31    22    59 1   
    32    23    60 1   
    33    24    25 1   
    34    24    61 1   
    35    25    26 1   
    36    25    34 1   
    37    26    27 2   
    38    26    62 1   
    39    27    28 1   
    40    28    29 ar  
    41    28    34 ar  
    42    29    30 1   
    43    29    31 ar  
    44    30    63 1   
    45    30    64 1   
    46    31    32 ar  
    47    32    33 ar  
    48    32    65 1   
    49    33    34 ar  
    50    35    36 1   
    51    36    37 1   
    52    36    66 1   
    53    36    67 1   
    54    37    38 1   
    55    37    39 1   
    56    37    68 1   
    57    38    43 1   
    58    39    40 1   
    59    39    41 1   
    60    39    69 1   
    61    40    70 1   
    62    41    42 1   
    63    41    43 1   
    64    41    71 1   
    65    42    72 1   
    66    43    44 1   
    67    43    73 1   
    68    44    45 1   
    69    44    53 1   
    70    45    46 2   
    71    45    74 1   
    72    46    47 1   
    73    47    48 ar  
    74    47    53 ar  
    75    48    49 1   
    76    48    50 ar  
    77    49    75 1   
    78    49    76 1   
    79    50    51 ar  
    80    51    52 ar  
    81    51    77 1   
    82    52    53 ar  
@<TRIPOS>SUBSTRUCTURE
     1 B4P         1 TEMP              0 ****  ****    0 ROOT
