@<TRIPOS>MOLECULE
B4P
   77    82     1     0     0
SMALL
abcg2


@<TRIPOS>ATOM
      1 PA           0.9320     0.7340     0.4930 p5         1 B4P       1.467800
      2 O1A          1.7860    -0.1250     1.3810 o          1 B4P      -0.863750
      3 O2A         -0.2290     0.1540    -0.2440 o          1 B4P      -0.863750
      4 O3A          0.5160     2.1200     1.2610 os         1 B4P      -0.696800
      5 PB          -0.5700     2.3620     2.4670 p5         1 B4P       1.547800
      6 O1B         -0.1940     3.6680     3.0900 o          1 B4P      -0.884500
      7 O2B         -0.6700     1.1300     3.3210 o          1 B4P      -0.884500
      8 O3B         -1.9590     2.5030     1.6290 os         1 B4P      -0.706800
      9 PG          -2.7470     3.9150     1.3340 p5         1 B4P       1.547800
     10 O1G         -3.3000     4.4730     2.6060 o          1 B4P      -0.884500
     11 O2G         -1.9310     4.7600     0.4070 o          1 B4P      -0.884500
     12 O3G         -3.9690     3.2280     0.4630 os         1 B4P      -0.696800
     13 PD          -5.5320     3.6960     0.6200 p5         1 B4P       1.467800
     14 O1D         -6.1800     2.9810     1.7670 o          1 B4P      -0.863750
     15 O2D         -5.6290     5.1820     0.4770 o          1 B4P      -0.863750
     16 O5E          1.9190     1.5310    -0.5720 os         1 B4P      -0.553400
     17 C5E          2.7950     0.7580    -1.3560 c3         1 B4P       0.233600
     18 C4E          4.1960     1.3220    -1.2890 c5         1 B4P       0.150300
     19 O4E          4.6880     1.3150     0.0510 os         1 B4P      -0.380500
     20 C3E          5.1990     0.4970    -2.0940 c5         1 B4P       0.083300
     21 O3E          5.2600     0.9590    -3.4150 oh         1 B4P      -0.712500
     22 C2E          6.4970     0.7060    -1.3070 c5         1 B4P       0.073300
     23 O2E          7.0660     1.9530    -1.5980 oh         1 B4P      -0.711000
     24 C1E          5.9650     0.7680     0.1220 c5         1 B4P       0.328300
     25 N9A          5.8870    -0.5610     0.7270 na         1 B4P      -0.310300
     26 C8A          4.7770    -1.2050     1.2090 cc         1 B4P       0.454700
     27 N7A          5.0550    -2.3530     1.7630 nd         1 B4P      -0.524600
     28 C5A          6.4150    -2.4660     1.6580 ca         1 B4P      -0.052100
     29 C6A          7.3300    -3.4510     2.0730 ca         1 B4P       0.439900
     30 N6A          6.9530    -4.5670     2.7000 nv         1 B4P      -1.061400
     31 N1A          8.6300    -3.2410     1.8370 nb         1 B4P      -0.337000
     32 C2A          9.0040    -2.1200     1.2240 ca         1 B4P       0.140400
     33 N3A          8.2460    -1.1310     0.7860 nb         1 B4P      -0.243500
     34 C4A          6.9540    -1.3560     1.0260 ca         1 B4P       0.099500
     35 O5F         -6.0830     3.0580    -0.7990 os         1 B4P      -0.553400
     36 C5F         -7.0320     2.0220    -0.8350 c3         1 B4P       0.233600
     37 C4F         -6.6320     0.9810    -1.8660 c5         1 B4P       0.150300
     38 O4F         -5.3050     0.5090    -1.6330 os         1 B4P      -0.380500
     39 C3F         -7.5240    -0.2490    -1.7890 c5         1 B4P       0.083300
     40 O3F         -7.5300    -0.8900    -3.0380 oh         1 B4P      -0.712500
     41 C2F         -6.7750    -1.0850    -0.7470 c5         1 B4P       0.073300
     42 O2F         -7.0140    -2.4600    -0.8100 oh         1 B4P      -0.711000
     43 C1F         -5.3190    -0.7920    -1.1150 c5         1 B4P       0.328300
     44 N9B         -4.4050    -0.8810    -0.0100 na         1 B4P      -0.310300
     45 C8B         -4.4090    -0.1200     1.1340 cc         1 B4P       0.454700
     46 N7B         -3.4070    -0.3690     1.9160 nd         1 B4P      -0.524600
     47 C5B         -2.6830    -1.3290     1.2600 ca         1 B4P      -0.052100
     48 C6B         -1.4470    -1.9370     1.5240 ca         1 B4P       0.439900
     49 N6B         -0.7000    -1.6120     2.5940 nv         1 B4P      -1.061400
     50 N1B         -1.0290    -2.8910     0.6840 nb         1 B4P      -0.337000
     51 C2B         -1.7390    -3.1460    -0.4080 ca         1 B4P       0.140400
     52 N3B         -2.8610    -2.5740    -0.8130 nb         1 B4P      -0.243500
     53 C4B         -3.2920    -1.6700     0.0640 ca         1 B4P       0.099500
     54 H51A         2.4790     0.7750    -2.4050 h1         1 B4P       0.003700
     55 H52A         2.8150    -0.2940    -1.0490 h1         1 B4P       0.003700
     56 H4E          4.1910     2.3560    -1.6520 h1         1 B4P       0.078700
     57 H3E          4.9250    -0.5660    -2.0540 h1         1 B4P       0.040700
     58 HO3A         5.6440     0.2700    -3.9670 ho         1 B4P       0.486500
     59 H2E          7.2150    -0.1100    -1.4500 h1         1 B4P       0.065200
     60 HO2A         6.9330     2.1240    -2.5390 ho         1 B4P       0.493500
     61 H1E          6.6030     1.3840     0.7620 h2         1 B4P       0.092200
     62 H8A          3.7830    -0.7740     1.1510 h5         1 B4P       0.143800
     63 H61A         7.6330    -5.2690     2.9360 hn         1 B4P       0.506250
     64 H62A         5.9800    -4.7900     2.8190 hn         1 B4P       0.506250
     65 H2A         10.0720    -2.0100     1.0670 h5         1 B4P      -0.004400
     66 H51B        -7.1580     1.5650     0.1510 h1         1 B4P       0.003700
     67 H52B        -8.0120     2.4190    -1.1250 h1         1 B4P       0.003700
     68 H4F         -6.6620     1.4250    -2.8650 h1         1 B4P       0.078700
     69 H3F         -8.5410     0.0020    -1.4580 h1         1 B4P       0.040700
     70 HO3B        -7.7880    -1.8090    -2.8980 ho         1 B4P       0.486500
     71 H2F         -6.9910    -0.6890     0.2520 h1         1 B4P       0.065200
     72 HO2B        -7.8000    -2.6610    -0.2930 ho         1 B4P       0.493500
     73 H1F         -4.9700    -1.5170    -1.8590 h2         1 B4P       0.092200
     74 H8B         -5.1720     0.6200     1.3280 h5         1 B4P       0.143800
     75 H61B        -0.8020    -0.6430     2.9150 hn         1 B4P       0.506250
     76 H62B         0.2720    -1.8660     2.4970 hn         1 B4P       0.506250
     77 H2B         -1.3410    -3.9220    -1.0550 h5         1 B4P      -0.004400
@<TRIPOS>BOND
     1     1     2 1   
     2     1     3 1   
     3     1     4 1   
     4     1    16 1   
     5     4     5 1   
     6     5     6 1   
     7     5     7 1   
     8     5     8 1   
     9     8     9 1   
    10     9    10 1   
    11     9    11 1   
    12     9    12 1   
    13    12    13 1   
    14    13    14 1   
    15    13    15 1   
    16    13    35 1   
    17    16    17 1   
    18    17    18 1   
    19    17    54 1   
    20    17    55 1   
    21    18    19 1   
    22    18    20 1   
    23    18    56 1   
    24    19    24 1   
    25    20    21 1   
    26    20    22 1   
    27    20    57 1   
    28    21    58 1   
    29    22    23 1   
    30    22    24 1   
    31    22    59 1   
    32    23    60 1   
    33    24    25 1   
    34    24    61 1   
    35    25    26 1   
    36    25    34 1   
    37    26    27 2   
    38    26    62 1   
    39    27    28 1   
    40    28    29 ar  
    41    28    34 ar  
    42    29    30 1   
    43    29    31 ar  
    44    30    63 1   
    45    30    64 1   
    46    31    32 ar  
    47    32    33 ar  
    48    32    65 1   
    49    33    34 ar  
    50    35    36 1   
    51    36    37 1   
    52    36    66 1   
    53    36    67 1   
    54    37    38 1   
    55    37    39 1   
    56    37    68 1   
    57    38    43 1   
    58    39    40 1   
    59    39    41 1   
    60    39    69 1   
    61    40    70 1   
    62    41    42 1   
    63    41    43 1   
    64    41    71 1   
    65    42    72 1   
    66    43    44 1   
    67    43    73 1   
    68    44    45 1   
    69    44    53 1   
    70    45    46 2   
    71    45    74 1   
    72    46    47 1   
    73    47    48 ar  
    74    47    53 ar  
    75    48    49 1   
    76    48    50 ar  
    77    49    75 1   
    78    49    76 1   
    79    50    51 ar  
    80    51    52 ar  
    81    51    77 1   
    82    52    53 ar  
@<TRIPOS>SUBSTRUCTURE
     1 B4P         1 TEMP              0 ****  ****    0 ROOT
