@<TRIPOS>MOLECULE
B4Q
   55    58     1     0     0
SMALL
abcg2


@<TRIPOS>ATOM
      1 C1          -5.1710     1.7760     1.3720 c3         1 B4Q      -0.034100
      2 N1           5.4110     0.4980    -1.0200 na         1 B4Q      -0.315600
      3 C2          -5.9760     0.9180     0.4330 ca         1 B4Q      -0.060300
      4 N2           5.5720     0.5310     1.1910 nc         1 B4Q      -0.576100
      5 C3          -7.3450     1.1460     0.2970 ca         1 B4Q      -0.112000
      6 C4          -8.1160     0.4140    -0.5940 ca         1 B4Q      -0.107000
      7 C5          -7.5210    -0.5690    -1.3720 ca         1 B4Q      -0.115000
      8 C6          -6.1610    -0.8090    -1.2450 ca         1 B4Q      -0.098000
      9 C7          -5.3810    -0.0760    -0.3520 cp         1 B4Q      -0.037000
     10 C8          -3.9270    -0.3730    -0.2600 cp         1 B4Q      -0.034000
     11 C9          -3.0540     0.1600    -1.2060 ca         1 B4Q      -0.102000
     12 C10         -1.6980    -0.1200    -1.1690 ca         1 B4Q      -0.090000
     13 C11         -1.1840    -0.9570    -0.1840 ca         1 B4Q      -0.087300
     14 C12          0.2840    -1.2860    -0.1480 c3         1 B4Q       0.206100
     15 C13          2.5050    -0.3680     0.0190 c3         1 B4Q       0.157800
     16 C14          3.3070     0.9150     0.2400 c3         1 B4Q      -0.100700
     17 C15          4.7710     0.6650     0.1680 cd         1 B4Q       0.415800
     18 C16          6.7280     0.2380    -0.7500 ca         1 B4Q      -0.079200
     19 C17          7.8290    -0.0090    -1.5620 ca         1 B4Q      -0.116000
     20 C18          9.0350    -0.2370    -0.9200 ca         1 B4Q      -0.093000
     21 C19          9.1360    -0.2160     0.4790 ca         1 B4Q      -0.136000
     22 C20          8.0340     0.0330     1.2780 ca         1 B4Q      -0.048000
     23 C21          6.8100     0.2630     0.6520 ca         1 B4Q       0.068400
     24 C22         -2.0570    -1.4800     0.7620 ca         1 B4Q      -0.108000
     25 C23         -3.4230    -1.2070     0.7450 ca         1 B4Q      -0.063300
     26 C24         -4.3270    -1.8160     1.7770 c3         1 B4Q      -0.047800
     27 C           -4.6540     3.0430     0.6940 c3         1 B4Q      -0.085100
     28 N            1.0850    -0.0910     0.0540 n7         1 B4Q      -0.862400
     29 H1          -5.7900     2.0550     2.2280 hc         1 B4Q       0.047700
     30 H2          -4.3250     1.2140     1.7720 hc         1 B4Q       0.047700
     31 H5          -7.8140     1.9130     0.9030 ha         1 B4Q       0.111000
     32 H6          -9.1770     0.6110    -0.6790 ha         1 B4Q       0.112000
     33 H7          -8.1120    -1.1470    -2.0710 ha         1 B4Q       0.113000
     34 H8          -5.6920    -1.5800    -1.8450 ha         1 B4Q       0.115000
     35 H9          -3.4480     0.8000    -1.9860 ha         1 B4Q       0.117000
     36 H10         -1.0400     0.3090    -1.9160 ha         1 B4Q       0.122000
     37 H11          0.4660    -2.0570     0.6150 h1         1 B4Q       0.037700
     38 H12          0.5790    -1.7270    -1.1050 h1         1 B4Q       0.037700
     39 H13          2.7460    -0.7840    -0.9630 h1         1 B4Q       0.036200
     40 H14          2.8180    -1.1200     0.7600 h1         1 B4Q       0.036200
     41 H15          3.0150     1.6570    -0.5070 hc         1 B4Q       0.072200
     42 H16          3.0810     1.3300     1.2230 hc         1 B4Q       0.072200
     43 H17          7.7510    -0.0250    -2.6410 ha         1 B4Q       0.116000
     44 H18          9.9180    -0.4370    -1.5120 ha         1 B4Q       0.112000
     45 H19         10.0980    -0.4010     0.9390 ha         1 B4Q       0.114000
     46 H20          8.1170     0.0480     2.3580 ha         1 B4Q       0.128000
     47 H21         -1.6620    -2.1270     1.5380 ha         1 B4Q       0.109000
     48 H22         -4.8590    -1.0580     2.3550 hc         1 B4Q       0.044033
     49 H23         -5.0890    -2.4480     1.3170 hc         1 B4Q       0.044033
     50 H24         -3.7640    -2.4280     2.4790 hc         1 B4Q       0.044033
     51 H25         -5.4770     3.6410     0.2980 hc         1 B4Q       0.034700
     52 H26         -4.1000     3.6620     1.4000 hc         1 B4Q       0.034700
     53 H27         -3.9880     2.8040    -0.1360 hc         1 B4Q       0.034700
     54 H28          0.8460     0.3090     0.9540 hn         1 B4Q       0.414000
     55 H3           4.9920     0.5770    -1.9330 hn         1 B4Q       0.356000
@<TRIPOS>BOND
     1     1     3 1   
     2     1    27 1   
     3     1    29 1   
     4     1    30 1   
     5     2    17 1   
     6     2    18 1   
     7     2    55 1   
     8     3     5 ar  
     9     3     9 ar  
    10     4    17 2   
    11     4    23 1   
    12     5     6 ar  
    13     5    31 1   
    14     6     7 ar  
    15     6    32 1   
    16     7     8 ar  
    17     7    33 1   
    18     8     9 ar  
    19     8    34 1   
    20     9    10 1   
    21    10    11 ar  
    22    10    25 ar  
    23    11    12 ar  
    24    11    35 1   
    25    12    13 ar  
    26    12    36 1   
    27    13    14 1   
    28    13    24 ar  
    29    14    28 1   
    30    14    37 1   
    31    14    38 1   
    32    15    16 1   
    33    15    28 1   
    34    15    39 1   
    35    15    40 1   
    36    16    17 1   
    37    16    41 1   
    38    16    42 1   
    39    18    19 ar  
    40    18    23 ar  
    41    19    20 ar  
    42    19    43 1   
    43    20    21 ar  
    44    20    44 1   
    45    21    22 ar  
    46    21    45 1   
    47    22    23 ar  
    48    22    46 1   
    49    24    25 ar  
    50    24    47 1   
    51    25    26 1   
    52    26    48 1   
    53    26    49 1   
    54    26    50 1   
    55    27    51 1   
    56    27    52 1   
    57    27    53 1   
    58    28    54 1   
@<TRIPOS>SUBSTRUCTURE
     1 B4Q         1 TEMP              0 ****  ****    0 ROOT
