@<TRIPOS>MOLECULE
B4Q
   55    58     1     0     0
SMALL
No Charge or Current Charge


@<TRIPOS>ATOM
      1 C1          -4.9460     2.0180     1.1370 c3         1 B4Q      -0.034100
      2 N1           5.5120     0.7950    -0.9080 na         1 B4Q      -0.315600
      3 C2          -5.9150     1.0490     0.4600 ca         1 B4Q      -0.060300
      4 N2           5.4460     0.0750     1.2860 nc         1 B4Q      -0.576100
      5 C3          -7.2940     1.3340     0.5120 ca         1 B4Q      -0.112000
      6 C4          -8.2270     0.4820    -0.1010 ca         1 B4Q      -0.107000
      7 C5          -7.7880    -0.6660    -0.7770 ca         1 B4Q      -0.115000
      8 C6          -6.4170    -0.9590    -0.8380 ca         1 B4Q      -0.098000
      9 C7          -5.4620    -0.1140    -0.2240 cp         1 B4Q      -0.037000
     10 C8          -4.0160    -0.4630    -0.3140 cp         1 B4Q      -0.034000
     11 C9          -3.2620    -0.0430    -1.4330 ca         1 B4Q      -0.102000
     12 C10         -1.8970    -0.3530    -1.5420 ca         1 B4Q      -0.090000
     13 C11         -1.2580    -1.0950    -0.5330 ca         1 B4Q      -0.087300
     14 C12          0.2220    -1.4340    -0.6520 c3         1 B4Q       0.206100
     15 C13          2.5020    -0.5480    -0.2020 c3         1 B4Q       0.157800
     16 C14          3.2500     0.7050     0.2830 c3         1 B4Q      -0.100700
     17 C15          4.7400     0.5230     0.2290 cd         1 B4Q       0.415800
     18 C16          6.7810     0.4870    -0.5090 ca         1 B4Q      -0.079200
     19 C17          7.9740     0.5640    -1.2400 ca         1 B4Q      -0.116000
     20 C18          9.1670     0.1840    -0.5930 ca         1 B4Q      -0.093000
     21 C19          9.1370    -0.2580     0.7510 ca         1 B4Q      -0.136000
     22 C20          7.9140    -0.3220     1.4530 ca         1 B4Q      -0.048000
     23 C21          6.7380     0.0620     0.7890 ca         1 B4Q       0.068400
     24 C22         -2.0000    -1.5240     0.5840 ca         1 B4Q      -0.108000
     25 C23         -3.3710    -1.2170     0.7020 ca         1 B4Q      -0.063300
     26 C24         -4.1400    -1.7060     1.9250 c3         1 B4Q      -0.047800
     27 C           -4.4830     3.1400     0.1890 c3         1 B4Q      -0.085100
     28 N            1.0480    -0.3120    -0.1740 n7         1 B4Q      -0.862400
     29 H1          -5.4210     2.4730     2.0150 hc         1 B4Q       0.047700
     30 H2          -4.0650     1.4900     1.5200 hc         1 B4Q       0.047700
     31 H5          -7.6470     2.2240     1.0300 ha         1 B4Q       0.111000
     32 H6          -9.2890     0.7130    -0.0530 ha         1 B4Q       0.112000
     33 H7          -8.5090    -1.3280    -1.2540 ha         1 B4Q       0.113000
     34 H8          -6.0820    -1.8500    -1.3640 ha         1 B4Q       0.115000
     35 H9          -3.7450     0.5320    -2.2190 ha         1 B4Q       0.117000
     36 H10         -1.3340    -0.0140    -2.4090 ha         1 B4Q       0.122000
     37 H11          0.4310    -2.3410    -0.0670 h1         1 B4Q       0.037700
     38 H12          0.4550    -1.6630    -1.7010 h1         1 B4Q       0.037700
     39 H13          2.8300    -0.7860    -1.2230 h1         1 B4Q       0.036200
     40 H14          2.7680    -1.3980     0.4420 h1         1 B4Q       0.036200
     41 H15          2.9620     1.5610    -0.3380 hc         1 B4Q       0.072200
     42 H16          2.9410     0.9410     1.3070 hc         1 B4Q       0.072200
     43 H17          7.9810     0.9060    -2.2730 ha         1 B4Q       0.116000
     44 H18         10.1130     0.2310    -1.1280 ha         1 B4Q       0.112000
     45 H19         10.0610    -0.5500     1.2460 ha         1 B4Q       0.114000
     46 H20          7.8810    -0.6600     2.4860 ha         1 B4Q       0.128000
     47 H21         -1.5060    -2.0990     1.3640 ha         1 B4Q       0.109000
     48 H22         -4.5200    -0.8630     2.5140 hc         1 B4Q       0.044033
     49 H23         -4.9980    -2.3210     1.6290 hc         1 B4Q       0.044033
     50 H24         -3.5140    -2.3150     2.5870 hc         1 B4Q       0.044033
     51 H25         -5.3420     3.7200    -0.1700 hc         1 B4Q       0.034700
     52 H26         -3.7990     3.8220     0.7080 hc         1 B4Q       0.034700
     53 H27         -3.9600     2.7230    -0.6790 hc         1 B4Q       0.034700
     54 H28          0.7690    -0.1140     0.7950 hn         1 B4Q       0.414000
     55 H3           5.1890     1.1380    -1.8030 hn         1 B4Q       0.356000
@<TRIPOS>BOND
     1     1     3 1   
     2     1    27 1   
     3     1    29 1   
     4     1    30 1   
     5     2    17 1   
     6     2    18 1   
     7     2    55 1   
     8     3     5 ar  
     9     3     9 ar  
    10     4    17 2   
    11     4    23 1   
    12     5     6 ar  
    13     5    31 1   
    14     6     7 ar  
    15     6    32 1   
    16     7     8 ar  
    17     7    33 1   
    18     8     9 ar  
    19     8    34 1   
    20     9    10 1   
    21    10    11 ar  
    22    10    25 ar  
    23    11    12 ar  
    24    11    35 1   
    25    12    13 ar  
    26    12    36 1   
    27    13    14 1   
    28    13    24 ar  
    29    14    28 1   
    30    14    37 1   
    31    14    38 1   
    32    15    16 1   
    33    15    28 1   
    34    15    39 1   
    35    15    40 1   
    36    16    17 1   
    37    16    41 1   
    38    16    42 1   
    39    18    19 ar  
    40    18    23 ar  
    41    19    20 ar  
    42    19    43 1   
    43    20    21 ar  
    44    20    44 1   
    45    21    22 ar  
    46    21    45 1   
    47    22    23 ar  
    48    22    46 1   
    49    24    25 ar  
    50    24    47 1   
    51    25    26 1   
    52    26    48 1   
    53    26    49 1   
    54    26    50 1   
    55    27    51 1   
    56    27    52 1   
    57    27    53 1   
    58    28    54 1   
@<TRIPOS>SUBSTRUCTURE
     1 B4Q         1 TEMP              0 ****  ****    0 ROOT
