@<TRIPOS>MOLECULE
B4S
   30    31     1     0     0
SMALL
No Charge or Current Charge


@<TRIPOS>ATOM
      1 O2          -5.9050    -1.0210    -0.7970 o          1 B4S      -0.541500
      2 S           -5.3440     0.0750    -0.0110 sy         1 B4S       1.127600
      3 O1          -5.8200     1.4510    -0.1390 o          1 B4S      -0.541500
      4 N           -5.7300    -0.3210     1.5240 n8         1 B4S      -1.006100
      5 C10         -3.5480     0.0130    -0.0080 ca         1 B4S      -0.262500
      6 C9          -2.8810    -1.1880    -0.3190 ca         1 B4S      -0.009000
      7 C8          -1.4760    -1.2330    -0.3160 ca         1 B4S      -0.116500
      8 C11         -2.8000     1.1630     0.3080 ca         1 B4S      -0.009000
      9 C12         -1.3950     1.1110     0.3070 ca         1 B4S      -0.116500
     10 C7          -0.7030    -0.0860    -0.0040 cp         1 B4S       0.005000
     11 C6           0.7950    -0.1380    -0.0030 cp         1 B4S       0.013000
     12 C13          1.5680     0.9710    -0.4200 ca         1 B4S      -0.149000
     13 C1           2.9690     0.9230    -0.4200 ca         1 B4S       0.226000
     14 F1           3.6560     2.0120    -0.8350 f          1 B4S      -0.157000
     15 C5           1.4900    -1.2990     0.4160 ca         1 B4S      -0.124000
     16 C4           2.8940    -1.3510     0.4190 ca         1 B4S      -0.034000
     17 C2           3.6530    -0.2360    -0.0010 ca         1 B4S      -0.243300
     18 C3           5.1850    -0.2700    -0.0070 c3         1 B4S       0.370300
     19 F2           5.6830    -0.0690    -1.2480 f          1 B4S      -0.107333
     20 F3           5.7080     0.6870     0.7920 f          1 B4S      -0.107333
     21 F4           5.6890    -1.4500     0.4240 f          1 B4S      -0.107333
     22 H1          -6.3940    -1.0730     1.3570 hn         1 B4S       0.475000
     23 H2          -6.3420     0.4550     1.7640 hn         1 B4S       0.475000
     24 H3          -3.4440    -2.0870    -0.5650 ha         1 B4S       0.140500
     25 H4          -0.9820    -2.1670    -0.5730 ha         1 B4S       0.124000
     26 H5          -3.3000     2.0980     0.5580 ha         1 B4S       0.140500
     27 H6          -0.8390     2.0080     0.5680 ha         1 B4S       0.124000
     28 H7           1.0790     1.8780    -0.7640 ha         1 B4S       0.144000
     29 H8           0.9350    -2.1680     0.7580 ha         1 B4S       0.129000
     30 H9           3.3810    -2.2660     0.7540 ha         1 B4S       0.138000
@<TRIPOS>BOND
     1     1     2 2   
     2     2     3 2   
     3     2     4 1   
     4     2     5 1   
     5     4    22 1   
     6     4    23 1   
     7     5     6 ar  
     8     5     8 ar  
     9     6     7 ar  
    10     6    24 1   
    11     7    10 ar  
    12     7    25 1   
    13     8     9 ar  
    14     8    26 1   
    15     9    10 ar  
    16     9    27 1   
    17    10    11 1   
    18    11    12 ar  
    19    11    15 ar  
    20    12    13 ar  
    21    12    28 1   
    22    13    14 1   
    23    13    17 ar  
    24    15    16 ar  
    25    15    29 1   
    26    16    17 ar  
    27    16    30 1   
    28    17    18 1   
    29    18    19 1   
    30    18    20 1   
    31    18    21 1   
@<TRIPOS>SUBSTRUCTURE
     1 B4S         1 TEMP              0 ****  ****    0 ROOT
