@<TRIPOS>MOLECULE
B4S
   30    31     1     0     0
SMALL
bcc


@<TRIPOS>ATOM
      1 O2          -5.7510    -1.0640    -0.8300 o          1 B4S      -0.612300
      2 S           -5.2630     0.0800    -0.0720 sy         1 B4S       1.269200
      3 O1          -5.6750     1.4130    -0.4850 o          1 B4S      -0.612300
      4 N           -5.6120    -0.0220     1.5380 n8         1 B4S      -0.895700
      5 C10         -3.4950    -0.0030    -0.0440 ca         1 B4S      -0.262500
      6 C9          -2.8510    -1.1710    -0.4200 ca         1 B4S      -0.027000
      7 C8          -1.4660    -1.2140    -0.3990 ca         1 B4S      -0.134500
      8 C11         -2.7770     1.1200     0.3440 ca         1 B4S      -0.027000
      9 C12         -1.3960     1.0670     0.3530 ca         1 B4S      -0.134500
     10 C7          -0.7230    -0.0990    -0.0170 cp         1 B4S       0.005000
     11 C6           0.7510    -0.1500    -0.0050 cp         1 B4S       0.013000
     12 C13          1.4950     0.9590    -0.4040 ca         1 B4S      -0.167000
     13 C1           2.8700     0.8920    -0.3890 ca         1 B4S       0.190900
     14 F1           3.5640     1.9640    -0.7830 f          1 B4S      -0.121900
     15 C5           1.4230    -1.3010     0.4030 ca         1 B4S      -0.142000
     16 C4           2.8060    -1.3460     0.4130 ca         1 B4S      -0.052000
     17 C2           3.5550    -0.2460     0.0130 ca         1 B4S      -0.243300
     18 C3           5.0520    -0.2690     0.0130 c3         1 B4S       0.734200
     19 F2           5.5560    -0.0250    -1.2040 f          1 B4S      -0.228633
     20 F3           5.5640     0.6540     0.8380 f          1 B4S      -0.228633
     21 F4           5.5310    -1.4510     0.4030 f          1 B4S      -0.228633
     22 H1          -5.5170    -0.9640     1.9030 hn         1 B4S       0.419800
     23 H2          -6.5380     0.3430     1.7430 hn         1 B4S       0.419800
     24 H3          -3.4090    -2.0420    -0.7360 ha         1 B4S       0.158500
     25 H4          -0.9660    -2.1210    -0.7110 ha         1 B4S       0.142000
     26 H5          -3.2800     2.0300     0.6430 ha         1 B4S       0.158500
     27 H6          -0.8400     1.9400     0.6720 ha         1 B4S       0.142000
     28 H7           1.0140     1.8650    -0.7490 ha         1 B4S       0.162000
     29 H8           0.8680    -2.1660     0.7390 ha         1 B4S       0.147000
     30 H9           3.2950    -2.2500     0.7470 ha         1 B4S       0.156000
@<TRIPOS>BOND
     1     1     2 2   
     2     2     3 2   
     3     2     4 1   
     4     2     5 1   
     5     4    22 1   
     6     4    23 1   
     7     5     6 ar  
     8     5     8 ar  
     9     6     7 ar  
    10     6    24 1   
    11     7    10 ar  
    12     7    25 1   
    13     8     9 ar  
    14     8    26 1   
    15     9    10 ar  
    16     9    27 1   
    17    10    11 1   
    18    11    12 ar  
    19    11    15 ar  
    20    12    13 ar  
    21    12    28 1   
    22    13    14 1   
    23    13    17 ar  
    24    15    16 ar  
    25    15    29 1   
    26    16    17 ar  
    27    16    30 1   
    28    17    18 1   
    29    18    19 1   
    30    18    20 1   
    31    18    21 1   
@<TRIPOS>SUBSTRUCTURE
     1 B4S         1 TEMP              0 ****  ****    0 ROOT
