@<TRIPOS>MOLECULE
B4U
   64    68     1     0     0
SMALL
No Charge or Current Charge


@<TRIPOS>ATOM
      1 C1           4.8930   -37.4190    -8.8710 cc         1 B4U       0.250900
      2 C2           4.5280   -37.1740    -6.7000 cd         1 B4U      -0.222000
      3 C3          10.1950   -38.4070    -9.4910 ca         1 B4U      -0.397600
      4 C7           7.9970   -37.7960    -8.0940 ca         1 B4U       0.450900
      5 C8          11.5160   -38.1040    -7.4170 cc         1 B4U      -0.390800
      6 C9          12.6650   -38.4170    -8.1090 cd         1 B4U      -0.009400
      7 C10         11.4550   -38.7390   -10.2190 c          1 B4U       0.599600
      8 C11          6.4700   -39.6890   -11.8630 cx         1 B4U      -0.128400
      9 C12          7.3110   -39.8620   -13.1070 cx         1 B4U      -0.128400
     10 C13          1.5900   -38.0810    -5.9650 c6         1 B4U      -0.089900
     11 C14          1.8510   -35.5670    -6.2020 c6         1 B4U      -0.089900
     12 C15          0.1760   -37.8430    -5.3880 c6         1 B4U       0.164800
     13 C16          0.4300   -35.4000    -5.6190 c6         1 B4U       0.164800
     14 C20         15.9610   -38.2550   -11.4870 c3         1 B4U      -0.117100
     15 N25          9.1540   -37.7960    -7.4240 nb         1 B4U      -0.305000
     16 N26          7.8250   -38.0720    -9.3890 nb         1 B4U      -0.332000
     17 N29          0.0850   -36.5230    -4.7040 n3         1 B4U      -0.721600
     18 C4           5.5240   -37.3640    -7.6000 cc         1 B4U       0.187000
     19 C5          10.2550   -38.1030    -8.1290 ca         1 B4U       0.295800
     20 C6           8.9270   -38.3770   -10.0870 ca         1 B4U       0.472900
     21 C17          1.9880   -36.9310    -6.9230 c6         1 B4U       0.098300
     22 C18          7.5440   -38.6830   -12.1980 cx         1 B4U       0.187200
     23 C23         14.6990   -37.8570   -10.6990 c3         1 B4U       0.168300
     24 N24          3.5810   -37.2770    -8.8270 nd         1 B4U      -0.524800
     25 N27          3.3550   -37.1250    -7.4660 na         1 B4U       0.128800
     26 N28         12.6530   -38.7300    -9.4670 n          1 B4U      -0.286000
     27 N30          6.8830   -37.4820    -7.3320 nu         1 B4U      -0.896900
     28 N31          8.7570   -38.6620   -11.4310 nu         1 B4U      -0.895100
     29 O32         11.4560   -38.9990   -11.4180 o          1 B4U      -0.617000
     30 F33         15.0620   -37.0410    -9.6770 f          1 B4U      -0.281000
     31 H1           5.3570   -37.5540    -9.8370 h4         1 B4U       0.064100
     32 H2           4.5470   -37.0740    -5.6220 h4         1 B4U       0.156000
     33 H3          11.5640   -37.8630    -6.3580 ha         1 B4U       0.215000
     34 H4          13.6570   -38.4400    -7.6610 h4         1 B4U       0.205000
     35 H6           6.6490   -40.3660   -11.0320 hc         1 B4U       0.079700
     36 H7           6.8360   -39.6770   -14.0680 hc         1 B4U       0.079700
     37 H8           8.0490   -40.6600   -13.1110 hc         1 B4U       0.079700
     38 H9           1.6160   -39.0410    -6.4970 hc         1 B4U       0.059700
     39 H10          2.3090   -38.1560    -5.1390 hc         1 B4U       0.059700
     40 H11          2.5870   -35.4880    -5.3910 hc         1 B4U       0.059700
     41 H12          2.0630   -34.7480    -6.9030 hc         1 B4U       0.059700
     42 H13         -0.5610   -37.9010    -6.2030 h1         1 B4U       0.036700
     43 H14         -0.0570   -38.6540    -4.6830 h1         1 B4U       0.036700
     44 H15          0.3810   -34.4420    -5.0810 h1         1 B4U       0.036700
     45 H16         -0.2950   -35.3450    -6.4450 h1         1 B4U       0.036700
     46 H17          7.0650   -36.5990   -11.7830 hc         1 B4U       0.048033
     47 H18          8.0400   -36.8430   -13.2460 hc         1 B4U       0.048033
     48 H19          6.3150   -37.2330   -13.2530 hc         1 B4U       0.048033
     49 H20         16.4740   -37.3620   -11.8650 hc         1 B4U       0.052033
     50 H21         16.6600   -38.8100   -10.8490 hc         1 B4U       0.052033
     51 H22         15.6980   -38.8860   -12.3440 hc         1 B4U       0.052033
     52 H29          1.2880   -36.9380    -7.7710 h1         1 B4U       0.083700
     53 H30         14.0320   -37.2930   -11.3640 h1         1 B4U       0.079700
     54 H31          7.1180   -37.3400    -6.3500 hn         1 B4U       0.513000
     55 H32          9.6570   -38.8770   -11.8760 hn         1 B4U       0.542000
     56 C21         -1.2220   -36.3240    -4.0400 c3         1 B4U       0.152100
     57 C22         13.9290   -39.0800   -10.1480 c3         1 B4U       0.070000
     58 H5           5.4350   -39.3840   -11.9870 hc         1 B4U       0.079700
     59 C19          7.2250   -37.2600   -12.6430 c3         1 B4U      -0.072100
     60 H23         -1.4200   -37.1330    -3.3230 h1         1 B4U       0.033367
     61 H24         -1.2370   -35.3740    -3.4900 h1         1 B4U       0.033367
     62 H25         -2.0380   -36.3090    -4.7760 h1         1 B4U       0.033367
     63 H26         13.7300   -39.7790   -10.9710 h1         1 B4U       0.073700
     64 H27         14.5750   -39.6150    -9.4390 h1         1 B4U       0.073700
@<TRIPOS>BOND
     1     1    18 1   
     2     1    24 2   
     3     1    31 1   
     4     2    18 2   
     5     2    25 1   
     6     2    32 1   
     7     3     7 1   
     8     3    19 ar  
     9     3    20 ar  
    10     4    15 ar  
    11     4    16 ar  
    12     4    27 1   
    13     5     6 2   
    14     5    19 1   
    15     5    33 1   
    16     6    26 1   
    17     6    34 1   
    18     7    26 1   
    19     7    29 2   
    20     8     9 1   
    21     8    22 1   
    22     8    35 1   
    23     8    58 1   
    24     9    22 1   
    25     9    36 1   
    26     9    37 1   
    27    10    12 1   
    28    10    21 1   
    29    10    38 1   
    30    10    39 1   
    31    11    13 1   
    32    11    21 1   
    33    11    40 1   
    34    11    41 1   
    35    12    17 1   
    36    12    42 1   
    37    12    43 1   
    38    13    17 1   
    39    13    44 1   
    40    13    45 1   
    41    14    23 1   
    42    14    49 1   
    43    14    50 1   
    44    14    51 1   
    45    15    19 ar  
    46    16    20 ar  
    47    17    56 1   
    48    18    27 1   
    49    20    28 1   
    50    21    25 1   
    51    21    52 1   
    52    22    28 1   
    53    22    59 1   
    54    23    30 1   
    55    23    53 1   
    56    23    57 1   
    57    24    25 1   
    58    26    57 1   
    59    27    54 1   
    60    28    55 1   
    61    46    59 1   
    62    47    59 1   
    63    48    59 1   
    64    56    60 1   
    65    56    61 1   
    66    56    62 1   
    67    57    63 1   
    68    57    64 1   
@<TRIPOS>SUBSTRUCTURE
     1 B4U         1 TEMP              0 ****  ****    0 ROOT
