@<TRIPOS>MOLECULE
B4U
   64    68     1     0     0
SMALL
abcg2


@<TRIPOS>ATOM
      1 C1           5.0080   -37.7550    -8.8070 cc         1 B4U       0.250900
      2 C2           4.6010   -37.2830    -6.6790 cd         1 B4U      -0.222000
      3 C3          10.2540   -38.5050    -9.3970 ca         1 B4U      -0.397600
      4 C7           8.0570   -37.9740    -7.9360 ca         1 B4U       0.450900
      5 C8          11.5890   -38.3150    -7.3670 cc         1 B4U      -0.390800
      6 C9          12.6900   -38.5760    -8.1050 cd         1 B4U      -0.009400
      7 C10         11.4400   -38.7830   -10.1640 c          1 B4U       0.599600
      8 C11          6.5480   -39.6890   -11.7830 cx         1 B4U      -0.128400
      9 C12          7.3380   -39.6180   -13.0660 cx         1 B4U      -0.128400
     10 C13          1.6230   -38.0610    -5.9580 c6         1 B4U      -0.089900
     11 C14          1.9830   -35.6080    -6.3220 c6         1 B4U      -0.089900
     12 C15          0.2130   -37.7340    -5.4820 c6         1 B4U       0.164800
     13 C16          0.5580   -35.3760    -5.8350 c6         1 B4U       0.164800
     14 C20         15.6720   -38.0450   -11.6460 c3         1 B4U      -0.117100
     15 N25          9.2220   -38.0050    -7.2690 nb         1 B4U      -0.305000
     16 N26          7.8700   -38.1730    -9.2450 nb         1 B4U      -0.332000
     17 N29          0.1490   -36.4040    -4.8820 n3         1 B4U      -0.721600
     18 C4           5.6330   -37.5970    -7.5510 cc         1 B4U       0.187000
     19 C5          10.3130   -38.2690    -8.0050 ca         1 B4U       0.295800
     20 C6           8.9450   -38.4410    -9.9900 ca         1 B4U       0.472900
     21 C17          2.1060   -36.9980    -6.9430 c6         1 B4U       0.098300
     22 C18          7.5300   -38.5720   -12.0050 cx         1 B4U       0.187200
     23 C23         14.4040   -37.7980   -10.8660 c3         1 B4U       0.168300
     24 N24          3.6920   -37.5530    -8.7040 nd         1 B4U      -0.524800
     25 N27          3.4620   -37.2670    -7.4130 na         1 B4U       0.128800
     26 N28         12.6390   -38.8080    -9.4510 n          1 B4U      -0.286000
     27 N30          6.9680   -37.7070    -7.1680 nu         1 B4U      -0.896900
     28 N31          8.7840   -38.6550   -11.3020 nu         1 B4U      -0.895100
     29 O32         11.4640   -38.9940   -11.3910 o          1 B4U      -0.617000
     30 F33         14.6740   -36.8410    -9.8490 f          1 B4U      -0.281000
     31 H1           5.4600   -38.0000    -9.7490 h4         1 B4U       0.064100
     32 H2           4.6110   -37.0800    -5.6220 h4         1 B4U       0.156000
     33 H3          11.6660   -38.1420    -6.3040 ha         1 B4U       0.215000
     34 H4          13.6770   -38.6190    -7.6670 h4         1 B4U       0.205000
     35 H6           6.8190   -40.4500   -11.0660 hc         1 B4U       0.079700
     36 H7           6.8260   -39.3170   -13.9710 hc         1 B4U       0.079700
     37 H8           8.1320   -40.3390   -13.2070 hc         1 B4U       0.079700
     38 H9           1.6370   -39.0440    -6.4340 hc         1 B4U       0.059700
     39 H10          2.2980   -38.0940    -5.0980 hc         1 B4U       0.059700
     40 H11          2.6710   -35.5230    -5.4770 hc         1 B4U       0.059700
     41 H12          2.2550   -34.8460    -7.0560 hc         1 B4U       0.059700
     42 H13         -0.4870   -37.8120    -6.3350 h1         1 B4U       0.036700
     43 H14         -0.1060   -38.4650    -4.7380 h1         1 B4U       0.036700
     44 H15          0.4880   -34.4030    -5.3460 h1         1 B4U       0.036700
     45 H16         -0.1270   -35.3520    -6.7030 h1         1 B4U       0.036700
     46 H17          6.8760   -36.6400   -11.3130 hc         1 B4U       0.048033
     47 H18          7.7530   -36.6070   -12.8530 hc         1 B4U       0.048033
     48 H19          6.0820   -37.1920   -12.7950 hc         1 B4U       0.048033
     49 H20         16.0470   -37.1090   -12.0620 hc         1 B4U       0.052033
     50 H21         16.4390   -38.4850   -11.0070 hc         1 B4U       0.052033
     51 H22         15.4690   -38.7300   -12.4710 hc         1 B4U       0.052033
     52 H29          1.4920   -37.0420    -7.8440 h1         1 B4U       0.083700
     53 H30         13.6300   -37.3510   -11.4900 h1         1 B4U       0.079700
     54 H31          7.1730   -37.5620    -6.1910 hn         1 B4U       0.513000
     55 H32          9.6430   -38.8180   -11.8170 hn         1 B4U       0.542000
     56 C21         -1.1780   -36.1310    -4.3500 c3         1 B4U       0.152100
     57 C22         13.8780   -39.0500   -10.1890 c3         1 B4U       0.070000
     58 H5           5.4960   -39.4400   -11.8140 hc         1 B4U       0.079700
     59 C19          7.0300   -37.1680   -12.2550 c3         1 B4U      -0.072100
     60 H23         -1.4400   -36.8850    -3.6060 h1         1 B4U       0.033367
     61 H24         -1.1880   -35.1510    -3.8700 h1         1 B4U       0.033367
     62 H25         -1.9540   -36.1370    -5.1330 h1         1 B4U       0.033367
     63 H26         13.6920   -39.8100   -10.9450 h1         1 B4U       0.073700
     64 H27         14.6210   -39.4270    -9.4870 h1         1 B4U       0.073700
@<TRIPOS>BOND
     1     1    18 1   
     2     1    24 2   
     3     1    31 1   
     4     2    18 2   
     5     2    25 1   
     6     2    32 1   
     7     3     7 1   
     8     3    19 ar  
     9     3    20 ar  
    10     4    15 ar  
    11     4    16 ar  
    12     4    27 1   
    13     5     6 2   
    14     5    19 1   
    15     5    33 1   
    16     6    26 1   
    17     6    34 1   
    18     7    26 1   
    19     7    29 2   
    20     8     9 1   
    21     8    22 1   
    22     8    35 1   
    23     8    58 1   
    24     9    22 1   
    25     9    36 1   
    26     9    37 1   
    27    10    12 1   
    28    10    21 1   
    29    10    38 1   
    30    10    39 1   
    31    11    13 1   
    32    11    21 1   
    33    11    40 1   
    34    11    41 1   
    35    12    17 1   
    36    12    42 1   
    37    12    43 1   
    38    13    17 1   
    39    13    44 1   
    40    13    45 1   
    41    14    23 1   
    42    14    49 1   
    43    14    50 1   
    44    14    51 1   
    45    15    19 ar  
    46    16    20 ar  
    47    17    56 1   
    48    18    27 1   
    49    20    28 1   
    50    21    25 1   
    51    21    52 1   
    52    22    28 1   
    53    22    59 1   
    54    23    30 1   
    55    23    53 1   
    56    23    57 1   
    57    24    25 1   
    58    26    57 1   
    59    27    54 1   
    60    28    55 1   
    61    46    59 1   
    62    47    59 1   
    63    48    59 1   
    64    56    60 1   
    65    56    61 1   
    66    56    62 1   
    67    57    63 1   
    68    57    64 1   
@<TRIPOS>SUBSTRUCTURE
     1 B4U         1 TEMP              0 ****  ****    0 ROOT
