@<TRIPOS>MOLECULE
B4V
   57    61     1     0     0
SMALL
bcc


@<TRIPOS>ATOM
      1 C1           7.3640    -1.2490     0.1080 cc         1 B4V      -0.201700
      2 C2           7.5490    -0.0920    -0.5700 cd         1 B4V       0.386600
      3 C3           8.8950     0.3170    -1.0600 c6         1 B4V      -0.099700
      4 C4           9.8490    -0.8700    -0.9840 c6         1 B4V       0.164800
      5 C6           8.4540    -2.2130     0.4370 c6         1 B4V       0.251100
      6 C7          -0.4450     1.4360     0.8760 ca         1 B4V      -0.123300
      7 C8          -0.6230     2.2900    -0.2120 ca         1 B4V      -0.080000
      8 C9           0.3760     2.4430    -1.1580 ca         1 B4V      -0.138000
      9 C10          1.5750     1.7580    -1.0260 ca         1 B4V      -0.093000
     10 C11          1.7710     0.9090     0.0590 ca         1 B4V      -0.153600
     11 C12          0.7500     0.7430     0.9960 ca         1 B4V      -0.063000
     12 C13          3.0240     0.1370     0.2540 c          1 B4V       0.687700
     13 O16          3.0670    -0.9050     0.8840 o          1 B4V      -0.575100
     14 C17          5.3950     0.0950    -0.2360 cc         1 B4V       0.538300
     15 C20         -4.9320     0.5590     0.4730 cc         1 B4V       0.185800
     16 N22         -2.7320     0.6760     1.3470 ns         1 B4V      -0.556900
     17 O23         -3.9650     2.5770     1.2210 o          1 B4V      -0.611100
     18 N5           9.7370    -1.5480     0.2970 n3         1 B4V      -0.710600
     19 N15          4.1460     0.6670    -0.3020 ns         1 B4V      -0.532400
     20 N18          6.4260     0.6690    -0.7610 nd         1 B4V      -0.703000
     21 S19          5.7020    -1.4220     0.5450 ss         1 B4V      -0.083300
     22 C21         -3.8390     1.3730     1.0460 c          1 B4V       0.616600
     23 C24         -6.1940     0.9550     0.0920 cd         1 B4V      -0.048900
     24 N25         -6.7350    -0.2040    -0.3590 na         1 B4V       0.051600
     25 N26         -5.8740    -1.2260    -0.2570 nd         1 B4V      -0.200800
     26 N27         -4.8000    -0.7690     0.2410 nc         1 B4V      -0.328000
     27 C28         -6.9050     2.2530     0.1230 c3         1 B4V      -0.044800
     28 C29         -7.9930    -0.4620    -0.8840 cc         1 B4V       0.296500
     29 C30         -8.6970    -1.7120    -0.8940 cc         1 B4V       0.501900
     30 N31         -9.8350    -1.4880    -1.4820 nd         1 B4V      -0.418300
     31 O32         -9.8450    -0.1700    -1.8080 os         1 B4V       0.126600
     32 N33         -8.7180     0.4360    -1.4540 nd         1 B4V      -0.323300
     33 N34         -8.3200    -2.8870    -0.3480 nv         1 B4V      -0.915500
     34 C35         10.8190    -2.4850     0.5070 c3         1 B4V       0.150100
     35 H1           8.8350     0.6790    -2.0890 hc         1 B4V       0.064200
     36 H2           9.2750     1.1470    -0.4570 hc         1 B4V       0.064200
     37 H3           9.6520    -1.5600    -1.8220 h1         1 B4V       0.035200
     38 H4          10.8750    -0.5180    -1.1020 h1         1 B4V       0.035200
     39 H5           8.3550    -2.5800     1.4620 h1         1 B4V       0.043200
     40 H6           8.3780    -3.0980    -0.2200 h1         1 B4V       0.043200
     41 H7          -1.5490     2.8430    -0.3170 ha         1 B4V       0.149000
     42 H8           0.2240     3.0990    -2.0050 ha         1 B4V       0.141000
     43 H9           2.3320     1.8790    -1.7900 ha         1 B4V       0.135000
     44 H10          0.8980     0.0720     1.8330 ha         1 B4V       0.152000
     45 H11         -1.1870     0.6350     2.7200 h1         1 B4V       0.069200
     46 H12         -1.8000     2.2310     2.3350 h1         1 B4V       0.069200
     47 H13         -2.7140    -0.3110     1.1360 hn         1 B4V       0.340500
     48 H15          4.1190     1.5720    -0.7510 hn         1 B4V       0.343500
     49 H16         -7.0080     2.6640    -0.8810 hc         1 B4V       0.079700
     50 H17         -7.9050     2.1440     0.5400 hc         1 B4V       0.079700
     51 H18         -6.3480     2.9610     0.7270 hc         1 B4V       0.079700
     52 H19         -8.8600    -3.6950    -0.6130 hn         1 B4V       0.439800
     53 H20         -7.3290    -3.0530    -0.2790 hn         1 B4V       0.439800
     54 H21         11.7750    -1.9610     0.4850 h1         1 B4V       0.031700
     55 H22         10.7200    -2.9550     1.4870 h1         1 B4V       0.031700
     56 H23         10.8540    -3.2870    -0.2470 h1         1 B4V       0.031700
     57 C14         -1.5370     1.2670     1.9030 c3         1 B4V       0.148300
@<TRIPOS>BOND
     1     1     2 2   
     2     1     5 1   
     3     1    21 1   
     4     2     3 1   
     5     2    20 1   
     6     3     4 1   
     7     3    35 1   
     8     3    36 1   
     9     4    18 1   
    10     4    37 1   
    11     4    38 1   
    12     5    18 1   
    13     5    39 1   
    14     5    40 1   
    15     6     7 ar  
    16     6    11 ar  
    17     6    57 1   
    18     7     8 ar  
    19     7    41 1   
    20     8     9 ar  
    21     8    42 1   
    22     9    10 ar  
    23     9    43 1   
    24    10    11 ar  
    25    10    12 1   
    26    11    44 1   
    27    12    13 2   
    28    12    19 1   
    29    14    19 1   
    30    14    20 2   
    31    14    21 1   
    32    15    22 1   
    33    15    23 2   
    34    15    26 1   
    35    16    22 1   
    36    16    47 1   
    37    16    57 1   
    38    17    22 2   
    39    18    34 1   
    40    19    48 1   
    41    23    24 1   
    42    23    27 1   
    43    24    25 1   
    44    24    28 1   
    45    25    26 2   
    46    27    49 1   
    47    27    50 1   
    48    27    51 1   
    49    28    29 1   
    50    28    32 2   
    51    29    30 2   
    52    29    33 1   
    53    30    31 1   
    54    31    32 1   
    55    33    52 1   
    56    33    53 1   
    57    34    54 1   
    58    34    55 1   
    59    34    56 1   
    60    45    57 1   
    61    46    57 1   
@<TRIPOS>SUBSTRUCTURE
     1 B4V         1 TEMP              0 ****  ****    0 ROOT
