@<TRIPOS>MOLECULE
B4V
   57    61     1     0     0
SMALL
No Charge or Current Charge


@<TRIPOS>ATOM
      1 C1           7.0140    -1.3770     0.1440 cc         1 B4V      -0.281300
      2 C2           7.0530    -0.3680    -0.7870 cd         1 B4V       0.321300
      3 C3           8.2440    -0.1650    -1.6840 c6         1 B4V      -0.099700
      4 C4           9.1750    -1.3970    -1.6610 c6         1 B4V       0.164800
      5 C6           8.1110    -2.3890     0.3220 c6         1 B4V       0.251100
      6 C7          -0.5650     2.2470     1.6040 ca         1 B4V      -0.123300
      7 C8          -0.5390     3.2880     0.6610 ca         1 B4V      -0.062000
      8 C9           0.5770     3.4530    -0.1730 ca         1 B4V      -0.120000
      9 C10          1.6740     2.5800    -0.0740 ca         1 B4V      -0.075000
     10 C11          1.6660     1.5210     0.8690 ca         1 B4V      -0.153600
     11 C12          0.5330     1.3700     1.7020 ca         1 B4V      -0.045000
     12 C13          2.8240     0.5510     1.0140 c          1 B4V       0.620700
     13 O16          2.8000    -0.3540     1.8330 o          1 B4V      -0.575100
     14 C17          5.0590     0.0410     0.0840 cc         1 B4V       0.538300
     15 C20         -4.7010     0.5540     0.5780 cc         1 B4V       0.120500
     16 N22         -2.7860     1.2130     1.8750 ns         1 B4V      -0.489900
     17 O23         -4.0520     2.8660     0.9710 o          1 B4V      -0.611100
     18 N5           9.3780    -1.8860    -0.2730 n3         1 B4V      -0.710600
     19 N15          3.8920     0.7500     0.1760 ns         1 B4V      -0.465400
     20 N18          5.9330     0.4490    -0.8190 nd         1 B4V      -0.703000
     21 S19          5.5260    -1.3560     1.0380 ss         1 B4V       0.061600
     22 C21         -3.8580     1.6670     1.1340 c          1 B4V       0.549600
     23 C24         -5.8400     0.7020    -0.1810 cd         1 B4V      -0.034300
     24 N25         -6.2060    -0.6260    -0.4660 na         1 B4V       0.102300
     25 N26         -5.3240    -1.4820     0.1570 nd         1 B4V      -0.200800
     26 N27         -4.4230    -0.7720     0.7710 nc         1 B4V      -0.328000
     27 C28         -6.5830     1.9650    -0.5950 c3         1 B4V      -0.044800
     28 C29         -7.2900    -1.0310    -1.2750 cc         1 B4V       0.296500
     29 C30         -7.7690    -2.3560    -1.4320 cc         1 B4V       0.501900
     30 N31         -8.7520    -2.4180    -2.2820 nd         1 B4V      -0.418300
     31 O32         -8.8870    -1.0370    -2.6850 os         1 B4V       0.126600
     32 N33         -7.9340    -0.1750    -2.0320 nd         1 B4V      -0.323300
     33 N34         -7.3320    -3.4950    -0.8150 nv         1 B4V      -1.025900
     34 C35         10.4690    -2.8780    -0.1730 c3         1 B4V       0.150100
     35 H1           7.9260     0.0400    -2.7140 hc         1 B4V       0.064200
     36 H2           8.8050     0.7160    -1.3480 hc         1 B4V       0.064200
     37 H3           8.7370    -2.1940    -2.2810 h1         1 B4V       0.035200
     38 H4          10.1360    -1.1200    -2.1220 h1         1 B4V       0.035200
     39 H5           8.2540    -2.6030     1.3920 h1         1 B4V       0.043200
     40 H6           7.8160    -3.3360    -0.1560 h1         1 B4V       0.043200
     41 H7          -1.3840     3.9690     0.5720 ha         1 B4V       0.131000
     42 H8           0.5920     4.2610    -0.9010 ha         1 B4V       0.123000
     43 H9           2.5170     2.7440    -0.7400 ha         1 B4V       0.117000
     44 H10          0.5000     0.5640     2.4340 ha         1 B4V       0.134000
     45 H11         -1.4680     1.6010     3.4530 h1         1 B4V       0.069200
     46 H12         -2.2130     3.0430     2.7490 h1         1 B4V       0.069200
     47 H13         -2.6930     0.2060     1.9540 hn         1 B4V       0.340500
     48 H15          3.8060     1.5250    -0.4590 hn         1 B4V       0.343500
     49 H16         -6.4290     2.1830    -1.6580 hc         1 B4V       0.079700
     50 H17         -7.6600     1.8710    -0.4160 hc         1 B4V       0.079700
     51 H18         -6.2720     2.8480    -0.0320 hc         1 B4V       0.079700
     52 H19         -7.6220    -4.3840    -1.2140 hn         1 B4V       0.495000
     53 H20         -6.4310    -3.4750    -0.3430 hn         1 B4V       0.495000
     54 H21         11.4100    -2.4590    -0.5530 h1         1 B4V       0.031700
     55 H22         10.6300    -3.1750     0.8730 h1         1 B4V       0.031700
     56 H23         10.2350    -3.7800    -0.7540 h1         1 B4V       0.031700
     57 C14         -1.7770     2.0640     2.5060 c3         1 B4V       0.148300
@<TRIPOS>BOND
     1     1     2 2   
     2     1     5 1   
     3     1    21 1   
     4     2     3 1   
     5     2    20 1   
     6     3     4 1   
     7     3    35 1   
     8     3    36 1   
     9     4    18 1   
    10     4    37 1   
    11     4    38 1   
    12     5    18 1   
    13     5    39 1   
    14     5    40 1   
    15     6     7 ar  
    16     6    11 ar  
    17     6    57 1   
    18     7     8 ar  
    19     7    41 1   
    20     8     9 ar  
    21     8    42 1   
    22     9    10 ar  
    23     9    43 1   
    24    10    11 ar  
    25    10    12 1   
    26    11    44 1   
    27    12    13 2   
    28    12    19 1   
    29    14    19 1   
    30    14    20 2   
    31    14    21 1   
    32    15    22 1   
    33    15    23 2   
    34    15    26 1   
    35    16    22 1   
    36    16    47 1   
    37    16    57 1   
    38    17    22 2   
    39    18    34 1   
    40    19    48 1   
    41    23    24 1   
    42    23    27 1   
    43    24    25 1   
    44    24    28 1   
    45    25    26 2   
    46    27    49 1   
    47    27    50 1   
    48    27    51 1   
    49    28    29 1   
    50    28    32 2   
    51    29    30 2   
    52    29    33 1   
    53    30    31 1   
    54    31    32 1   
    55    33    52 1   
    56    33    53 1   
    57    34    54 1   
    58    34    55 1   
    59    34    56 1   
    60    45    57 1   
    61    46    57 1   
@<TRIPOS>SUBSTRUCTURE
     1 B4V         1 TEMP              0 ****  ****    0 ROOT
