@<TRIPOS>MOLECULE
B4W
   41    44     1     0     0
SMALL
bcc


@<TRIPOS>ATOM
      1 C01         -1.9340    -2.8600    -0.1970 ca         1 B4W      -0.084000
      2 C02         -1.6250    -4.1900    -0.0400 ca         1 B4W      -0.150000
      3 C03         -0.2910    -4.5820     0.1500 ca         1 B4W      -0.090000
      4 C04          0.7150    -3.6490     0.1800 ca         1 B4W      -0.194300
      5 C05          0.4170    -2.2830     0.0200 ca         1 B4W       0.478600
      6 C06         -0.9210    -1.8890    -0.1680 ca         1 B4W      -0.319600
      7 C07         -1.1340    -0.4680    -0.3160 ca         1 B4W       0.751200
      8 C08          1.1150    -0.1040    -0.1000 cp         1 B4W       0.814500
      9 C09          2.2160     0.8740    -0.0730 cp         1 B4W      -0.280500
     10 C10          3.5570     0.4680     0.1010 ca         1 B4W       0.214100
     11 C11          4.5690     1.4330     0.1150 ca         1 B4W      -0.202000
     12 C12          4.2670     2.7720    -0.0380 ca         1 B4W      -0.063000
     13 C13          2.9470     3.1850    -0.2090 ca         1 B4W      -0.200000
     14 C14          1.9420     2.2380    -0.2250 ca         1 B4W      -0.037000
     15 C15         -2.6100     1.4580    -0.6410 c5         1 B4W       0.231500
     16 C16         -2.4550     2.2170     0.7000 c5         1 B4W       0.140800
     17 C17         -4.7480     2.0070     0.2900 c5         1 B4W       0.151800
     18 C18         -4.0740     1.6930    -1.0360 c5         1 B4W      -0.100400
     19 N19          1.4260    -1.3730     0.0500 nb         1 B4W      -0.818000
     20 N20         -0.1210     0.3780    -0.2740 nb         1 B4W      -0.826000
     21 N21         -2.3530     0.0350    -0.5050 nu         1 B4W      -0.865900
     22 N22         -3.7520     2.8480     0.9300 n7         1 B4W      -0.812200
     23 O23          3.9100    -0.8080     0.2550 oh         1 B4W      -0.523100
     24 H01         -2.9700    -2.5840    -0.3440 ha         1 B4W       0.122000
     25 H02         -2.4090    -4.9340    -0.0620 ha         1 B4W       0.136000
     26 H03         -0.0550    -5.6310     0.2730 ha         1 B4W       0.137000
     27 H04          1.7460    -3.9440     0.3270 ha         1 B4W       0.152000
     28 H21         -3.1440    -0.5870    -0.5150 hn         1 B4W       0.443800
     29 H14          0.9130     2.5410    -0.3590 ha         1 B4W       0.146000
     30 H11          5.5950     1.1110     0.2490 ha         1 B4W       0.145000
     31 H23          3.0720    -1.3480     0.2230 ho         1 B4W       0.487000
     32 H12          5.0660     3.5010    -0.0250 ha         1 B4W       0.129000
     33 H13          2.7110     4.2340    -0.3280 ha         1 B4W       0.133000
     34 H15         -1.9260     1.8540    -1.3920 h1         1 B4W       0.087700
     35 H161        -2.1770     1.5080     1.4890 h1         1 B4W       0.054200
     36 H162        -1.6620     2.9650     0.6440 h1         1 B4W       0.054200
     37 H181        -4.1330     2.5590    -1.6960 hc         1 B4W       0.061700
     38 H182        -4.5150     0.8470    -1.5640 hc         1 B4W       0.061700
     39 H22         -3.9330     2.9680     1.9170 hn         1 B4W       0.363800
     40 H171        -5.6940     2.5390     0.1670 h1         1 B4W       0.036200
     41 H172        -4.9650     1.0770     0.8380 h1         1 B4W       0.036200
@<TRIPOS>BOND
     1     1     2 ar  
     2     1     6 ar  
     3     1    24 1   
     4     2     3 ar  
     5     2    25 1   
     6     3     4 ar  
     7     3    26 1   
     8     4     5 ar  
     9     4    27 1   
    10     5     6 ar  
    11     5    19 ar  
    12     6     7 ar  
    13     7    20 ar  
    14     7    21 1   
    15     8     9 1   
    16     8    19 ar  
    17     8    20 ar  
    18     9    10 ar  
    19     9    14 ar  
    20    10    11 ar  
    21    10    23 1   
    22    11    12 ar  
    23    11    30 1   
    24    12    13 ar  
    25    12    32 1   
    26    13    14 ar  
    27    13    33 1   
    28    14    29 1   
    29    15    16 1   
    30    15    18 1   
    31    15    21 1   
    32    15    34 1   
    33    16    22 1   
    34    16    35 1   
    35    16    36 1   
    36    17    18 1   
    37    17    22 1   
    38    17    40 1   
    39    17    41 1   
    40    18    37 1   
    41    18    38 1   
    42    21    28 1   
    43    22    39 1   
    44    23    31 1   
@<TRIPOS>SUBSTRUCTURE
     1 B4W         1 TEMP              0 ****  ****    0 ROOT
