@<TRIPOS>MOLECULE
B4W
   41    44     1     0     0
SMALL
No Charge or Current Charge


@<TRIPOS>ATOM
      1 C01         -1.9890    -2.8130    -0.0580 ca         1 B4W      -0.066000
      2 C02         -1.7130    -4.1800    -0.2190 ca         1 B4W      -0.132000
      3 C03         -0.3870    -4.6220    -0.3410 ca         1 B4W      -0.072000
      4 C04          0.6660    -3.6940    -0.3040 ca         1 B4W      -0.111000
      5 C05          0.4080    -2.3200    -0.1440 ca         1 B4W       0.085000
      6 C06         -0.9290    -1.8760    -0.0190 ca         1 B4W      -0.189000
      7 C07         -1.1320    -0.4880     0.1370 ca         1 B4W       0.422900
      8 C08          1.1480    -0.1230     0.0430 cp         1 B4W       0.288500
      9 C09          2.2950     0.8690     0.0710 cp         1 B4W      -0.280500
     10 C10          3.6710     0.4960     0.1640 ca         1 B4W       0.214100
     11 C11          4.6880     1.4620     0.1900 ca         1 B4W      -0.184000
     12 C12          4.3820     2.8270     0.1240 ca         1 B4W      -0.045000
     13 C13          3.0440     3.2260     0.0320 ca         1 B4W      -0.182000
     14 C14          2.0180     2.2680     0.0070 ca         1 B4W      -0.019000
     15 C15         -2.6600     1.2300    -0.6170 c5         1 B4W       0.231500
     16 C16         -2.4730     2.5310     0.2590 c5         1 B4W       0.140800
     17 C17         -4.7530     2.0470     0.2940 c5         1 B4W       0.151800
     18 C18         -4.1990     1.1890    -0.8700 c5         1 B4W      -0.100400
     19 N19          1.4240    -1.4360    -0.1110 nb         1 B4W      -0.292000
     20 N20         -0.0980     0.3700     0.1710 nb         1 B4W      -0.300000
     21 N21         -2.4100     0.0600     0.2890 nu         1 B4W      -0.921100
     22 N22         -3.8130     3.1820     0.3180 n7         1 B4W      -0.867400
     23 O23          4.0600    -0.8040     0.2420 oh         1 B4W      -0.562100
     24 H01         -3.0260    -2.5000     0.0290 ha         1 B4W       0.104000
     25 H02         -2.5290    -4.8990    -0.2490 ha         1 B4W       0.118000
     26 H03         -0.1750    -5.6820    -0.4660 ha         1 B4W       0.119000
     27 H04          1.6910    -4.0440    -0.4020 ha         1 B4W       0.134000
     28 H21         -3.1420    -0.6360     0.4040 hn         1 B4W       0.499000
     29 H14          0.9950     2.6300    -0.0700 ha         1 B4W       0.128000
     30 H11          5.7270     1.1490     0.2630 ha         1 B4W       0.127000
     31 H23          3.2390    -1.3410     0.1620 ho         1 B4W       0.526000
     32 H12          5.1770     3.5700     0.1440 ha         1 B4W       0.111000
     33 H13          2.7970     4.2840    -0.0210 ha         1 B4W       0.115000
     34 H15         -2.0800     1.2250    -1.5530 h1         1 B4W       0.087700
     35 H161        -2.1270     2.2790     1.2720 h1         1 B4W       0.054200
     36 H162        -1.7240     3.2060    -0.1780 h1         1 B4W       0.054200
     37 H181        -4.4360     1.6610    -1.8310 hc         1 B4W       0.061700
     38 H182        -4.6270     0.1800    -0.9040 hc         1 B4W       0.061700
     39 H22         -3.9140     3.7220     1.1890 hn         1 B4W       0.419000
     40 H171        -5.7880     2.3730     0.1190 h1         1 B4W       0.036200
     41 H172        -4.7250     1.4940     1.2450 h1         1 B4W       0.036200
@<TRIPOS>BOND
     1     1     2 ar  
     2     1     6 ar  
     3     1    24 1   
     4     2     3 ar  
     5     2    25 1   
     6     3     4 ar  
     7     3    26 1   
     8     4     5 ar  
     9     4    27 1   
    10     5     6 ar  
    11     5    19 ar  
    12     6     7 ar  
    13     7    20 ar  
    14     7    21 1   
    15     8     9 1   
    16     8    19 ar  
    17     8    20 ar  
    18     9    10 ar  
    19     9    14 ar  
    20    10    11 ar  
    21    10    23 1   
    22    11    12 ar  
    23    11    30 1   
    24    12    13 ar  
    25    12    32 1   
    26    13    14 ar  
    27    13    33 1   
    28    14    29 1   
    29    15    16 1   
    30    15    18 1   
    31    15    21 1   
    32    15    34 1   
    33    16    22 1   
    34    16    35 1   
    35    16    36 1   
    36    17    18 1   
    37    17    22 1   
    38    17    40 1   
    39    17    41 1   
    40    18    37 1   
    41    18    38 1   
    42    21    28 1   
    43    22    39 1   
    44    23    31 1   
@<TRIPOS>SUBSTRUCTURE
     1 B4W         1 TEMP              0 ****  ****    0 ROOT
