@<TRIPOS>MOLECULE
B4Y
   67    71     1     0     0
SMALL
bcc


@<TRIPOS>ATOM
      1 N1          -4.0310     0.6140    -0.8990 nc         1 B4Y      -0.646000
      2 C2          -3.4920     0.6100     0.2700 cd         1 B4Y       0.585300
      3 S3          -4.5270     0.0540     1.5530 ss         1 B4Y      -0.259300
      4 C4          -5.7770    -0.2030     0.3850 cd         1 B4Y      -0.144700
      5 C5          -5.3250     0.1600    -0.8400 cc         1 B4Y       0.379600
      6 C6          -6.1660     0.0410    -2.0690 c6         1 B4Y      -0.105700
      7 C7          -7.6290    -0.1930    -1.7000 c6         1 B4Y      -0.074400
      8 C8          -7.7630    -1.2670    -0.6200 c6         1 B4Y       0.190500
      9 C9          -7.1210    -0.7710     0.6920 c6         1 B4Y      -0.027100
     10 N10         -9.1310    -1.7400    -0.4880 n3         1 B4Y      -0.730600
     11 C11          3.4820     2.6150    -0.9100 c5         1 B4Y       0.173000
     12 C12          2.3300     2.4180     0.0410 ca         1 B4Y      -0.090300
     13 C13          2.5070     2.5390     1.4170 ca         1 B4Y      -0.089000
     14 C14          1.4300     2.4010     2.2780 ca         1 B4Y      -0.138000
     15 C15          0.1630     2.1320     1.7790 ca         1 B4Y      -0.101000
     16 C16         -0.0250     2.0030     0.4060 ca         1 B4Y      -0.153600
     17 C17          1.0620     2.1600    -0.4520 ca         1 B4Y      -0.050000
     18 C18         -1.3550     1.7210    -0.2090 c          1 B4Y       0.689700
     19 N19         -2.2050     0.9960     0.5840 ns         1 B4Y      -0.548400
     20 O20         -1.6390     2.0940    -1.3270 o          1 B4Y      -0.525100
     21 C21          5.4160     3.9810    -1.3370 c5         1 B4Y      -0.093400
     22 C22          5.8780     2.7840    -0.5150 c5         1 B4Y       0.101000
     23 N23          4.6980     1.9250    -0.4930 n          1 B4Y      -0.504800
     24 C24          4.6910     0.5760    -0.3800 c          1 B4Y       0.800100
     25 N25          5.8730     0.0320     0.0690 ns         1 B4Y      -0.489100
     26 O26          3.7050    -0.0970    -0.6450 o          1 B4Y      -0.611100
     27 C27          6.1810    -1.3120     0.2330 ca         1 B4Y       0.091600
     28 C28          5.4310    -2.3620    -0.2950 ca         1 B4Y      -0.119000
     29 C29          5.8570    -3.6730    -0.0860 ca         1 B4Y       0.013000
     30 C30          7.0120    -3.9740     0.6300 ca         1 B4Y      -0.125000
     31 C31          7.7520    -2.9210     1.1430 ca         1 B4Y      -0.101000
     32 C32          7.3450    -1.6140     0.9510 ca         1 B4Y      -0.178000
     33 C33          5.0760    -4.7380    -0.6320 cg         1 B4Y       0.233800
     34 N34          4.4470    -5.5980    -1.0720 n1         1 B4Y      -0.360800
     35 C35          3.9350     4.0780    -0.9980 c5         1 B4Y      -0.090400
     36 C36         -9.2390    -2.9470     0.3010 c3         1 B4Y       0.159100
     37 C37        -10.0970    -0.7460    -0.0730 c3         1 B4Y       0.159100
     38 H1          -6.0670     0.9430    -2.6770 hc         1 B4Y       0.066200
     39 H2          -5.7930    -0.7840    -2.6850 hc         1 B4Y       0.066200
     40 H3          -8.0630     0.7510    -1.3570 hc         1 B4Y       0.052200
     41 H4          -8.1900    -0.4990    -2.5850 hc         1 B4Y       0.052200
     42 H5          -7.1770    -2.1320    -0.9550 h1         1 B4Y       0.062700
     43 H6          -7.0330    -1.5930     1.4070 hc         1 B4Y       0.054200
     44 H7          -7.7530    -0.0130     1.1650 hc         1 B4Y       0.054200
     45 H9           3.1780     2.2690    -1.9040 h1         1 B4Y       0.070700
     46 H10          3.4910     2.7400     1.8220 ha         1 B4Y       0.133000
     47 H11          1.5740     2.5080     3.3450 ha         1 B4Y       0.135000
     48 H12         -0.6640     2.0530     2.4740 ha         1 B4Y       0.129000
     49 H13          0.9180     2.0590    -1.5210 ha         1 B4Y       0.157000
     50 H14         -1.8490     0.6730     1.4700 hn         1 B4Y       0.332500
     51 H15          5.9710     4.8850    -1.0910 hc         1 B4Y       0.059200
     52 H16          5.5540     3.7770    -2.4000 hc         1 B4Y       0.059200
     53 H17          6.7290     2.2810    -0.9770 h1         1 B4Y       0.044700
     54 H18          6.1690     3.0850     0.4960 h1         1 B4Y       0.044700
     55 H19          6.5700     0.6640     0.4310 hn         1 B4Y       0.316500
     56 H20          4.5340    -2.1750    -0.8610 ha         1 B4Y       0.180000
     57 H21          7.3210    -4.9990     0.7770 ha         1 B4Y       0.146000
     58 H22          8.6560    -3.1190     1.7030 ha         1 B4Y       0.136000
     59 H23          7.9380    -0.8070     1.3640 ha         1 B4Y       0.128000
     60 H24          3.3530     4.6280    -1.7360 hc         1 B4Y       0.061700
     61 H25          3.8000     4.5750    -0.0340 hc         1 B4Y       0.061700
     62 H26         -9.0370    -2.8080     1.3740 h1         1 B4Y       0.029367
     63 H27        -10.2480    -3.3540     0.2130 h1         1 B4Y       0.029367
     64 H28         -8.5450    -3.7030    -0.0710 h1         1 B4Y       0.029367
     65 H29        -10.0890     0.1110    -0.7450 h1         1 B4Y       0.029367
     66 H30        -11.0970    -1.1790    -0.1190 h1         1 B4Y       0.029367
     67 H31         -9.9540    -0.3730     0.9520 h1         1 B4Y       0.029367
@<TRIPOS>BOND
     1     1     2 2   
     2     1     5 1   
     3     2     3 1   
     4     2    19 1   
     5     3     4 1   
     6     4     5 2   
     7     4     9 1   
     8     5     6 1   
     9     6     7 1   
    10     6    38 1   
    11     6    39 1   
    12     7     8 1   
    13     7    40 1   
    14     7    41 1   
    15     8     9 1   
    16     8    10 1   
    17     8    42 1   
    18     9    43 1   
    19     9    44 1   
    20    10    36 1   
    21    10    37 1   
    22    11    12 1   
    23    11    23 1   
    24    11    35 1   
    25    11    45 1   
    26    12    13 ar  
    27    12    17 ar  
    28    13    14 ar  
    29    13    46 1   
    30    14    15 ar  
    31    14    47 1   
    32    15    16 ar  
    33    15    48 1   
    34    16    17 ar  
    35    16    18 1   
    36    17    49 1   
    37    18    19 1   
    38    18    20 2   
    39    19    50 1   
    40    21    22 1   
    41    21    35 1   
    42    21    51 1   
    43    21    52 1   
    44    22    23 1   
    45    22    53 1   
    46    22    54 1   
    47    23    24 1   
    48    24    25 1   
    49    24    26 2   
    50    25    27 1   
    51    25    55 1   
    52    27    28 ar  
    53    27    32 ar  
    54    28    29 ar  
    55    28    56 1   
    56    29    30 ar  
    57    29    33 1   
    58    30    31 ar  
    59    30    57 1   
    60    31    32 ar  
    61    31    58 1   
    62    32    59 1   
    63    33    34 3   
    64    35    60 1   
    65    35    61 1   
    66    36    62 1   
    67    36    63 1   
    68    36    64 1   
    69    37    65 1   
    70    37    66 1   
    71    37    67 1   
@<TRIPOS>SUBSTRUCTURE
     1 B4Y         1 TEMP              0 ****  ****    0 ROOT
