@<TRIPOS>MOLECULE
B4Y
   67    71     1     0     0
SMALL
No Charge or Current Charge


@<TRIPOS>ATOM
      1 N1          -4.1780     0.4010    -1.0140 nc         1 B4Y      -0.646000
      2 C2          -3.6350     0.4430     0.1930 cd         1 B4Y       0.585300
      3 S3          -4.7020    -0.0040     1.5270 ss         1 B4Y      -0.114400
      4 C4          -5.9540    -0.2620     0.3340 cd         1 B4Y      -0.224300
      5 C5          -5.4860     0.0070    -0.9270 cc         1 B4Y       0.314300
      6 C6          -6.3400    -0.1340    -2.1630 c6         1 B4Y      -0.105700
      7 C7          -7.8500    -0.1890    -1.8010 c6         1 B4Y      -0.074400
      8 C8          -8.1170    -1.1780    -0.6280 c6         1 B4Y       0.190500
      9 C9          -7.3700    -0.6960     0.6570 c6         1 B4Y      -0.027100
     10 N10         -9.5780    -1.4420    -0.4230 n3         1 B4Y      -0.730600
     11 C11          3.4770     2.6340    -0.9880 c5         1 B4Y       0.173000
     12 C12          2.3380     2.2240    -0.0430 ca         1 B4Y      -0.090300
     13 C13          2.5190     2.1530     1.3540 ca         1 B4Y      -0.071000
     14 C14          1.4590     1.7720     2.1890 ca         1 B4Y      -0.120000
     15 C15          0.2050     1.4540     1.6460 ca         1 B4Y      -0.083000
     16 C16         -0.0060     1.5130     0.2460 ca         1 B4Y      -0.153600
     17 C17          1.0760     1.9000    -0.5810 ca         1 B4Y      -0.032000
     18 C18         -1.3410     1.1780    -0.3950 c          1 B4Y       0.622700
     19 N19         -2.3420     0.7980     0.4690 ns         1 B4Y      -0.481400
     20 O20         -1.4970     1.2490    -1.6050 o          1 B4Y      -0.525100
     21 C21          5.3200     4.1840    -1.0070 c5         1 B4Y      -0.093400
     22 C22          5.8310     2.8990    -0.3050 c5         1 B4Y       0.101000
     23 N23          4.7300     1.9510    -0.5930 n          1 B4Y      -0.437800
     24 C24          4.8630     0.5480    -0.5530 c          1 B4Y       0.666100
     25 N25          6.0880     0.0910    -0.0840 ns         1 B4Y      -0.163000
     26 O26          3.9570    -0.1890    -0.9190 o          1 B4Y      -0.611100
     27 C27          6.6120    -1.2140     0.1220 ca         1 B4Y      -0.001000
     28 C28          5.8600    -2.3990    -0.0530 ca         1 B4Y      -0.101000
     29 C29          6.4480    -3.6590     0.1740 ca         1 B4Y       0.013000
     30 C30          7.7940    -3.7410     0.5800 ca         1 B4Y      -0.107000
     31 C31          8.5450    -2.5690     0.7590 ca         1 B4Y      -0.083000
     32 C32          7.9540    -1.3150     0.5320 ca         1 B4Y      -0.160000
     33 C33          5.6760    -4.8600    -0.0060 cg         1 B4Y       0.323000
     34 N34          5.0410    -5.8290    -0.1540 n1         1 B4Y      -0.450000
     35 C35          3.8040     4.1300    -0.7030 c5         1 B4Y      -0.090400
     36 C36         -9.8500    -2.5870     0.4770 c3         1 B4Y       0.159100
     37 C37        -10.4110    -0.2580    -0.0900 c3         1 B4Y       0.159100
     38 H1          -6.1580     0.6960    -2.8590 hc         1 B4Y       0.066200
     39 H2          -6.0610    -1.0510    -2.6980 hc         1 B4Y       0.066200
     40 H3          -8.1860     0.8200    -1.5260 hc         1 B4Y       0.052200
     41 H4          -8.4300    -0.4860    -2.6850 hc         1 B4Y       0.052200
     42 H5          -7.6460    -2.1280    -0.9250 h1         1 B4Y       0.062700
     43 H6          -7.3570    -1.4980     1.4060 hc         1 B4Y       0.054200
     44 H7          -7.9030     0.1470     1.1140 hc         1 B4Y       0.054200
     45 H9           3.2420     2.4510    -2.0460 h1         1 B4Y       0.070700
     46 H10          3.4830     2.3940     1.7960 ha         1 B4Y       0.115000
     47 H11          1.6110     1.7220     3.2650 ha         1 B4Y       0.117000
     48 H12         -0.5870     1.1640     2.3310 ha         1 B4Y       0.111000
     49 H13          0.9400     1.9520    -1.6590 ha         1 B4Y       0.139000
     50 H14         -2.0680     0.7840     1.4380 hn         1 B4Y       0.332500
     51 H15          5.8010     5.0900    -0.6220 hc         1 B4Y       0.059200
     52 H16          5.5090     4.1440    -2.0860 hc         1 B4Y       0.059200
     53 H17          6.7940     2.5730    -0.7200 h1         1 B4Y       0.044700
     54 H18          5.9430     3.0460     0.7780 h1         1 B4Y       0.044700
     55 H19          6.7310     0.8290     0.1660 hn         1 B4Y       0.150000
     56 H20          4.8190    -2.3620    -0.3590 ha         1 B4Y       0.162000
     57 H21          8.2570    -4.7100     0.7570 ha         1 B4Y       0.128000
     58 H22          9.5840    -2.6320     1.0740 ha         1 B4Y       0.118000
     59 H23          8.5480    -0.4140     0.6740 ha         1 B4Y       0.110000
     60 H24          3.2200     4.8090    -1.3350 hc         1 B4Y       0.061700
     61 H25          3.6130     4.4160     0.3380 hc         1 B4Y       0.061700
     62 H26         -9.5770    -2.3500     1.5140 h1         1 B4Y       0.029367
     63 H27        -10.9160    -2.8490     0.4580 h1         1 B4Y       0.029367
     64 H28         -9.2810    -3.4730     0.1630 h1         1 B4Y       0.029367
     65 H29        -10.3030     0.5350    -0.8400 h1         1 B4Y       0.029367
     66 H30        -11.4740    -0.5350    -0.0610 h1         1 B4Y       0.029367
     67 H31        -10.1470     0.1530     0.8930 h1         1 B4Y       0.029367
@<TRIPOS>BOND
     1     1     2 2   
     2     1     5 1   
     3     2     3 1   
     4     2    19 1   
     5     3     4 1   
     6     4     5 2   
     7     4     9 1   
     8     5     6 1   
     9     6     7 1   
    10     6    38 1   
    11     6    39 1   
    12     7     8 1   
    13     7    40 1   
    14     7    41 1   
    15     8     9 1   
    16     8    10 1   
    17     8    42 1   
    18     9    43 1   
    19     9    44 1   
    20    10    36 1   
    21    10    37 1   
    22    11    12 1   
    23    11    23 1   
    24    11    35 1   
    25    11    45 1   
    26    12    13 ar  
    27    12    17 ar  
    28    13    14 ar  
    29    13    46 1   
    30    14    15 ar  
    31    14    47 1   
    32    15    16 ar  
    33    15    48 1   
    34    16    17 ar  
    35    16    18 1   
    36    17    49 1   
    37    18    19 1   
    38    18    20 2   
    39    19    50 1   
    40    21    22 1   
    41    21    35 1   
    42    21    51 1   
    43    21    52 1   
    44    22    23 1   
    45    22    53 1   
    46    22    54 1   
    47    23    24 1   
    48    24    25 1   
    49    24    26 2   
    50    25    27 1   
    51    25    55 1   
    52    27    28 ar  
    53    27    32 ar  
    54    28    29 ar  
    55    28    56 1   
    56    29    30 ar  
    57    29    33 1   
    58    30    31 ar  
    59    30    57 1   
    60    31    32 ar  
    61    31    58 1   
    62    32    59 1   
    63    33    34 3   
    64    35    60 1   
    65    35    61 1   
    66    36    62 1   
    67    36    63 1   
    68    36    64 1   
    69    37    65 1   
    70    37    66 1   
    71    37    67 1   
@<TRIPOS>SUBSTRUCTURE
     1 B4Y         1 TEMP              0 ****  ****    0 ROOT
