@<TRIPOS>MOLECULE
B4Z
   43    45     1     0     0
SMALL
No Charge or Current Charge


@<TRIPOS>ATOM
      1 O3          -2.7810    -3.3860     0.2760 o          1 B4Z      -0.530000
      2 S           -2.5900    -2.1800    -0.5350 sy         1 B4Z       1.156600
      3 O           -3.3460    -1.9600    -1.7670 o          1 B4Z      -0.530000
      4 C           -2.6750    -0.6930     0.5050 ca         1 B4Z      -0.306500
      5 C5          -2.7140     0.6450     0.0070 ca         1 B4Z       0.067000
      6 C6          -2.6290     0.9890    -1.3610 ca         1 B4Z      -0.182000
      7 C7          -2.6780     2.3370    -1.7510 ca         1 B4Z       0.351900
      8 N           -2.7970     3.3560    -0.8750 nb         1 B4Z      -0.664000
      9 C8          -2.8650     3.0430     0.4370 ca         1 B4Z       0.375900
     10 C4          -2.8220     1.7200     0.9200 ca         1 B4Z      -0.124000
     11 C3          -2.8830     1.4870     2.3040 ca         1 B4Z      -0.024000
     12 C2          -2.8300     0.1760     2.7910 ca         1 B4Z      -0.143000
     13 C1          -2.7280    -0.9040     1.9030 ca         1 B4Z       0.029000
     14 N1          -0.9960    -2.2240    -1.0350 n7         1 B4Z      -0.873300
     15 C9          -0.0130    -1.2690    -0.4760 c3         1 B4Z       0.198800
     16 C10          1.4130    -1.5590    -1.0150 c3         1 B4Z       0.159800
     17 N2           2.4120    -0.6050    -0.4750 n7         1 B4Z      -0.869400
     18 C11          3.8030    -0.8520    -0.8940 c3         1 B4Z       0.210100
     19 C12          4.7280     0.2110    -0.3160 ca         1 B4Z      -0.093300
     20 C17          5.0930     1.3340    -1.0860 ca         1 B4Z      -0.097500
     21 C16          5.9510     2.3120    -0.5520 ca         1 B4Z      -0.113500
     22 C15          6.4480     2.1740     0.7550 ca         1 B4Z      -0.107000
     23 C14          6.0860     1.0580     1.5280 ca         1 B4Z      -0.113500
     24 C13          5.2290     0.0800     0.9950 ca         1 B4Z      -0.097500
     25 H3          -2.5080     0.2540    -2.1450 ha         1 B4Z       0.134000
     26 H4          -2.6130     2.6100    -2.8030 h4         1 B4Z       0.025100
     27 H5          -2.9530     3.8830     1.1240 h4         1 B4Z       0.021100
     28 H2          -2.9650     2.3180     3.0020 ha         1 B4Z       0.122000
     29 H1          -2.8720    -0.0060     3.8630 ha         1 B4Z       0.127000
     30 H           -2.6950    -1.9100     2.3170 ha         1 B4Z       0.147000
     31 H6          -1.1060    -2.0730    -2.0370 hn         1 B4Z       0.482000
     32 H8          -0.2740    -0.2340    -0.7340 h1         1 B4Z       0.059200
     33 H7           0.0150    -1.3440     0.6200 h1         1 B4Z       0.059200
     34 H9           1.6840    -2.5870    -0.7380 h1         1 B4Z       0.041200
     35 H10          1.3950    -1.5070    -2.1120 h1         1 B4Z       0.041200
     36 H11          2.1610     0.3420    -0.7820 hn         1 B4Z       0.412000
     37 H12          4.1370    -1.8420    -0.5540 h1         1 B4Z       0.038700
     38 H13          3.8820    -0.8400    -1.9900 h1         1 B4Z       0.038700
     39 H19          4.7130     1.4480    -2.0990 ha         1 B4Z       0.117500
     40 H18          6.2300     3.1760    -1.1510 ha         1 B4Z       0.112500
     41 H17          7.1110     2.9320     1.1680 ha         1 B4Z       0.112000
     42 H16          6.4690     0.9510     2.5410 ha         1 B4Z       0.112500
     43 H15          4.9500    -0.7810     1.5990 ha         1 B4Z       0.117500
@<TRIPOS>BOND
     1     1     2 2   
     2     2     3 2   
     3     2     4 1   
     4     2    14 1   
     5     4     5 ar  
     6     4    13 ar  
     7     5     6 ar  
     8     5    10 ar  
     9     6     7 ar  
    10     6    25 1   
    11     7     8 ar  
    12     7    26 1   
    13     8     9 ar  
    14     9    10 ar  
    15     9    27 1   
    16    10    11 ar  
    17    11    12 ar  
    18    11    28 1   
    19    12    13 ar  
    20    12    29 1   
    21    13    30 1   
    22    14    15 1   
    23    14    31 1   
    24    15    16 1   
    25    15    32 1   
    26    15    33 1   
    27    16    17 1   
    28    16    34 1   
    29    16    35 1   
    30    17    18 1   
    31    17    36 1   
    32    18    19 1   
    33    18    37 1   
    34    18    38 1   
    35    19    20 ar  
    36    19    24 ar  
    37    20    21 ar  
    38    20    39 1   
    39    21    22 ar  
    40    21    40 1   
    41    22    23 ar  
    42    22    41 1   
    43    23    24 ar  
    44    23    42 1   
    45    24    43 1   
@<TRIPOS>SUBSTRUCTURE
     1 B4Z         1 TEMP              0 ****  ****    0 ROOT
