@<TRIPOS>MOLECULE
B4Z
   43    45     1     0     0
SMALL
abcg2


@<TRIPOS>ATOM
      1 O3          -1.6110    -3.0230     0.8120 o          1 B4Z      -0.530000
      2 S           -2.0760    -2.0800    -0.1900 sy         1 B4Z       1.156600
      3 O           -3.0570    -2.5100    -1.1720 o          1 B4Z      -0.530000
      4 C           -2.6960    -0.6540     0.6740 ca         1 B4Z      -0.306500
      5 C5          -3.2140     0.4680    -0.0310 ca         1 B4Z       0.067000
      6 C6          -3.3540     0.5850    -1.4330 ca         1 B4Z      -0.182000
      7 C7          -3.8440     1.7460    -1.9640 ca         1 B4Z       0.351900
      8 N           -4.2230     2.8150    -1.2330 nb         1 B4Z      -0.664000
      9 C8          -4.1170     2.7230     0.0630 ca         1 B4Z       0.375900
     10 C4          -3.6210     1.5850     0.7390 ca         1 B4Z      -0.124000
     11 C3          -3.5320     1.5630     2.1480 ca         1 B4Z      -0.024000
     12 C2          -3.0410     0.4630     2.7890 ca         1 B4Z      -0.143000
     13 C1          -2.6110    -0.6490     2.0420 ca         1 B4Z       0.029000
     14 N1          -0.7600    -1.5730    -1.0320 n7         1 B4Z      -0.873300
     15 C9           0.3390    -0.9360    -0.3140 c3         1 B4Z       0.198800
     16 C10          1.5660    -0.8930    -1.2100 c3         1 B4Z       0.159800
     17 N2           2.6530    -0.2440    -0.5110 n7         1 B4Z      -0.869400
     18 C11          3.9040    -0.2780    -1.2420 c3         1 B4Z       0.210100
     19 C12          5.0400     0.2910    -0.4320 ca         1 B4Z      -0.093300
     20 C17          6.0040     1.0950    -1.0340 ca         1 B4Z      -0.097500
     21 C16          7.0770     1.5910    -0.3030 ca         1 B4Z      -0.113500
     22 C15          7.1950     1.2940     1.0470 ca         1 B4Z      -0.107000
     23 C14          6.2340     0.4970     1.6590 ca         1 B4Z      -0.113500
     24 C13          5.1660     0.0010     0.9260 ca         1 B4Z      -0.097500
     25 H3          -3.1120    -0.2220    -2.1070 ha         1 B4Z       0.134000
     26 H4          -3.9500     1.8420    -3.0380 h4         1 B4Z       0.025100
     27 H5          -4.4310     3.5810     0.6510 h4         1 B4Z       0.021100
     28 H2          -3.8580     2.4300     2.7080 ha         1 B4Z       0.122000
     29 H1          -2.9690     0.4360     3.8680 ha         1 B4Z       0.127000
     30 H           -2.2080    -1.5050     2.5670 ha         1 B4Z       0.147000
     31 H6          -1.0080    -1.1140    -1.9020 hn         1 B4Z       0.482000
     32 H8           0.0720     0.0760     0.0090 h1         1 B4Z       0.059200
     33 H7           0.5680    -1.5200     0.5770 h1         1 B4Z       0.059200
     34 H9           1.8660    -1.9160    -1.4520 h1         1 B4Z       0.041200
     35 H10          1.3100    -0.4050    -2.1640 h1         1 B4Z       0.041200
     36 H11          2.4080     0.7210    -0.3250 hn         1 B4Z       0.412000
     37 H12          4.1250    -1.3250    -1.4750 h1         1 B4Z       0.038700
     38 H13          3.8530     0.2410    -2.2110 h1         1 B4Z       0.038700
     39 H19          5.9150     1.3390    -2.0870 ha         1 B4Z       0.117500
     40 H18          7.8160     2.2150    -0.7890 ha         1 B4Z       0.112500
     41 H17          8.0260     1.6830     1.6210 ha         1 B4Z       0.112000
     42 H16          6.3180     0.2610     2.7120 ha         1 B4Z       0.112500
     43 H15          4.4170    -0.6130     1.4100 ha         1 B4Z       0.117500
@<TRIPOS>BOND
     1     1     2 2   
     2     2     3 2   
     3     2     4 1   
     4     2    14 1   
     5     4     5 ar  
     6     4    13 ar  
     7     5     6 ar  
     8     5    10 ar  
     9     6     7 ar  
    10     6    25 1   
    11     7     8 ar  
    12     7    26 1   
    13     8     9 ar  
    14     9    10 ar  
    15     9    27 1   
    16    10    11 ar  
    17    11    12 ar  
    18    11    28 1   
    19    12    13 ar  
    20    12    29 1   
    21    13    30 1   
    22    14    15 1   
    23    14    31 1   
    24    15    16 1   
    25    15    32 1   
    26    15    33 1   
    27    16    17 1   
    28    16    34 1   
    29    16    35 1   
    30    17    18 1   
    31    17    36 1   
    32    18    19 1   
    33    18    37 1   
    34    18    38 1   
    35    19    20 ar  
    36    19    24 ar  
    37    20    21 ar  
    38    20    39 1   
    39    21    22 ar  
    40    21    40 1   
    41    22    23 ar  
    42    22    41 1   
    43    23    24 ar  
    44    23    42 1   
    45    24    43 1   
@<TRIPOS>SUBSTRUCTURE
     1 B4Z         1 TEMP              0 ****  ****    0 ROOT
