@<TRIPOS>MOLECULE
B50
   74    77     1     0     0
SMALL
bcc


@<TRIPOS>ATOM
      1 CAA          8.3920    -5.0310     0.6040 c3         1 B50       0.154100
      2 OAB          1.2360     2.8630    -0.7580 o          1 B50      -0.621100
      3 OAC         -1.0420     8.1720    -1.9490 oh         1 B50      -0.581800
      4 OAD         -1.8090     6.8060     0.4220 oh         1 B50      -0.581800
      5 CAF          0.5530    -3.4740    -0.7130 ca         1 B50      -0.124000
      6 CAG          0.6190    -2.4540    -1.6540 ca         1 B50      -0.132500
      7 CAH         -0.0870    -3.2490     0.4990 ca         1 B50      -0.132500
      8 CAI          0.0510    -1.2180    -1.3830 ca         1 B50      -0.117500
      9 CAJ         -0.6530    -2.0110     0.7690 ca         1 B50      -0.117500
     10 CAK         -5.7080    -1.0880     1.6240 ca         1 B50      -0.121500
     11 CAL         -4.8330    -2.3160    -0.2560 ca         1 B50      -0.121500
     12 CAM         -4.6350    -0.2150     1.5400 ca         1 B50      -0.115500
     13 CAN         -3.7720    -1.4290    -0.3340 ca         1 B50      -0.115500
     14 CAO         -2.6430     1.9480     0.6760 cc         1 B50      -0.132300
     15 CAP         -1.4840     6.8370    -1.9890 c3         1 B50       0.110400
     16 CAQ          3.7630    -0.4320     0.1620 c3         1 B50      -0.099400
     17 CAR          3.1680     0.9560    -0.0210 c3         1 B50       0.104000
     18 CAT          5.2310    -0.4550    -0.2380 c3         1 B50       0.174800
     19 CAU          7.5830    -3.3030    -0.8430 c6         1 B50       0.163800
     20 CAV          6.6260    -3.5750     1.3140 c6         1 B50       0.163800
     21 CAW          7.0470    -1.8850    -0.9010 c6         1 B50       0.165800
     22 CAX          6.0830    -2.1590     1.2480 c6         1 B50       0.165800
     23 CAY         -1.2210     3.9590     0.5740 c3         1 B50       0.048300
     24 NAZ          1.7600     0.9480     0.3120 ns         1 B50      -0.558900
     25 CBA          0.8900     1.8600    -0.1420 c          1 B50       0.704700
     26 CBB         -5.7960    -2.1390     0.7250 ca         1 B50       0.023400
     27 CBC         -3.6490    -0.3650     0.5620 ca         1 B50       0.007000
     28 CBD         -0.5870    -0.9790    -0.1660 ca         1 B50      -0.027000
     29 CBE         -2.5400     0.5880     0.4730 cd         1 B50      -0.109000
     30 CBF         -1.1830     0.3340     0.1330 cd         1 B50      -0.061000
     31 CBG         -0.5300     1.5560     0.1410 cc         1 B50      -0.177900
     32 CBH         -1.1730     6.1640    -0.6630 c3         1 B50       0.143100
     33 NBI          7.8350    -3.7000     0.5260 n3         1 B50      -0.717600
     34 NBJ          5.8250    -1.7720    -0.1270 n3         1 B50      -0.724600
     35 NBK         -1.4390     2.5250     0.4700 na         1 B50      -0.007100
     36 HAA          9.3250    -5.0780     0.0400 h1         1 B50       0.030367
     37 HAAA         8.6130    -5.2850     1.6410 h1         1 B50       0.030367
     38 HAAB         7.7200    -5.8070     0.2040 h1         1 B50       0.030367
     39 HOAC        -1.3090     8.5990    -2.7680 ho         1 B50       0.404000
     40 HAF          0.9960    -4.4390    -0.9240 ha         1 B50       0.132000
     41 HAG          1.1110    -2.6230    -2.6030 ha         1 B50       0.133000
     42 HAH         -0.1430    -4.0370     1.2380 ha         1 B50       0.133000
     43 HAI          0.0980    -0.4310    -2.1260 ha         1 B50       0.138500
     44 HAJ         -1.1440    -1.8400     1.7200 ha         1 B50       0.138500
     45 HAK         -6.4600    -0.9530     2.3900 ha         1 B50       0.145500
     46 HAL         -4.9110    -3.1330    -0.9610 ha         1 B50       0.145500
     47 HAM         -4.5600     0.5910     2.2590 ha         1 B50       0.138500
     48 HAN         -3.0400    -1.5650    -1.1180 ha         1 B50       0.138500
     49 HAO         -3.5050     2.5420     0.9380 h4         1 B50       0.169000
     50 HAP         -2.5660     6.7720    -2.1770 h1         1 B50       0.020700
     51 HAPA        -0.9920     6.2700    -2.7910 h1         1 B50       0.020700
     52 HAQ          3.6400    -0.7400     1.2050 hc         1 B50       0.054200
     53 HAQA         3.2130    -1.1520    -0.4500 hc         1 B50       0.054200
     54 HAR          3.7060     1.6810     0.5980 h1         1 B50       0.050700
     55 HARA         3.2850     1.2790    -1.0580 h1         1 B50       0.050700
     56 HAS         -0.9220     4.2210    -1.5330 hc         1 B50       0.062700
     57 HASA        -2.5650     4.5460    -1.0010 hc         1 B50       0.062700
     58 HAT          5.3050    -0.1440    -1.2840 h1         1 B50       0.032700
     59 HATA         5.7900     0.2970     0.3460 h1         1 B50       0.032700
     60 HAU          6.8650    -3.9790    -1.3390 h1         1 B50       0.037200
     61 HAUA         8.5160    -3.3550    -1.4110 h1         1 B50       0.037200
     62 HAV          6.8490    -3.8210     2.3550 h1         1 B50       0.037200
     63 HAVA         5.8430    -4.2770     0.9760 h1         1 B50       0.037200
     64 HAW          7.8260    -1.1890    -0.5440 h1         1 B50       0.037700
     65 HAWA         6.8370    -1.6280    -1.9420 h1         1 B50       0.037700
     66 HAX          5.1590    -2.1170     1.8270 h1         1 B50       0.037700
     67 HAXA         6.7990    -1.4720     1.7310 h1         1 B50       0.037700
     68 HAY         -0.1980     4.1400     0.8970 h1         1 B50       0.073700
     69 HAYA        -1.8720     4.3240     1.3670 h1         1 B50       0.073700
     70 HNAZ         1.4170     0.1950     0.8860 hn         1 B50       0.328500
     71 HBH         -0.0990     6.2630    -0.4700 h1         1 B50       0.096700
     72 CLAE        -7.1270    -3.2460     0.8290 cl         1 B50      -0.117400
     73 CAS         -1.5100     4.6780    -0.7360 c3         1 B50      -0.132400
     74 HOAD        -2.7620     6.7190     0.3120 ho         1 B50       0.394000
@<TRIPOS>BOND
     1     1    33 1   
     2     1    36 1   
     3     1    37 1   
     4     1    38 1   
     5     2    25 2   
     6     3    15 1   
     7     3    39 1   
     8     4    32 1   
     9     4    74 1   
    10     5     6 ar  
    11     5     7 ar  
    12     5    40 1   
    13     6     8 ar  
    14     6    41 1   
    15     7     9 ar  
    16     7    42 1   
    17     8    28 ar  
    18     8    43 1   
    19     9    28 ar  
    20     9    44 1   
    21    10    12 ar  
    22    10    26 ar  
    23    10    45 1   
    24    11    13 ar  
    25    11    26 ar  
    26    11    46 1   
    27    12    27 ar  
    28    12    47 1   
    29    13    27 ar  
    30    13    48 1   
    31    14    29 2   
    32    14    35 1   
    33    14    49 1   
    34    15    32 1   
    35    15    50 1   
    36    15    51 1   
    37    16    17 1   
    38    16    18 1   
    39    16    52 1   
    40    16    53 1   
    41    17    24 1   
    42    17    54 1   
    43    17    55 1   
    44    18    34 1   
    45    18    58 1   
    46    18    59 1   
    47    19    21 1   
    48    19    33 1   
    49    19    60 1   
    50    19    61 1   
    51    20    22 1   
    52    20    33 1   
    53    20    62 1   
    54    20    63 1   
    55    21    34 1   
    56    21    64 1   
    57    21    65 1   
    58    22    34 1   
    59    22    66 1   
    60    22    67 1   
    61    23    35 1   
    62    23    68 1   
    63    23    69 1   
    64    23    73 1   
    65    24    25 1   
    66    24    70 1   
    67    25    31 1   
    68    26    72 1   
    69    27    29 1   
    70    28    30 1   
    71    29    30 1   
    72    30    31 2   
    73    31    35 1   
    74    32    71 1   
    75    32    73 1   
    76    56    73 1   
    77    57    73 1   
@<TRIPOS>SUBSTRUCTURE
     1 B50         1 TEMP              0 ****  ****    0 ROOT
