@<TRIPOS>MOLECULE
B50
   74    77     1     0     0
SMALL
No Charge or Current Charge


@<TRIPOS>ATOM
      1 CAA          8.3220    -5.0600    -1.0120 c3         1 B50       0.154100
      2 OAB          1.3100     3.0940     0.2560 o          1 B50      -0.621100
      3 OAC         -0.8970     7.9140    -2.8590 oh         1 B50      -0.644000
      4 OAD         -2.3530     6.7450    -0.7670 oh         1 B50      -0.644000
      5 CAF          0.7150    -3.4080     0.5510 ca         1 B50      -0.106000
      6 CAG          0.9800    -2.4690    -0.4600 ca         1 B50      -0.114500
      7 CAH         -0.1900    -3.0930     1.5780 ca         1 B50      -0.114500
      8 CAI          0.3470    -1.2140    -0.4380 ca         1 B50      -0.099500
      9 CAJ         -0.8220    -1.8380     1.5990 ca         1 B50      -0.099500
     10 CAK         -6.0060    -0.9950     1.3700 ca         1 B50      -0.103500
     11 CAL         -4.6030    -2.6450     0.2770 ca         1 B50      -0.103500
     12 CAM         -4.9640    -0.0540     1.2860 ca         1 B50      -0.097500
     13 CAN         -3.5610    -1.7060     0.1950 ca         1 B50      -0.097500
     14 CAO         -2.8890     1.9610     0.6310 cc         1 B50      -0.165000
     15 CAP         -1.0000     6.4820    -2.7670 c3         1 B50       0.133600
     16 CAQ          3.7220    -0.3120     0.4260 c3         1 B50      -0.099400
     17 CAR          3.1210     0.9970     0.9670 c3         1 B50       0.104000
     18 CAT          5.2630    -0.3430     0.5080 c3         1 B50       0.174800
     19 CAU          8.0530    -2.6000    -0.9430 c6         1 B50       0.163800
     20 CAV          6.1850    -4.0380    -0.2890 c6         1 B50       0.163800
     21 CAW          7.3820    -1.3950    -0.2080 c6         1 B50       0.165800
     22 CAX          5.5090    -2.8330     0.4410 c6         1 B50       0.165800
     23 CAY         -1.5520     4.0700     0.3320 c3         1 B50       0.077600
     24 NAZ          1.6600     0.9620     0.9080 ns         1 B50      -0.491900
     25 CBA          0.8460     1.9930     0.5150 c          1 B50       0.637700
     26 CBB         -5.8230    -2.2920     0.8700 ca         1 B50       0.115000
     27 CBC         -3.7160    -0.4010     0.7180 ca         1 B50       0.007000
     28 CBD         -0.5510    -0.8830     0.5990 ca         1 B50      -0.027000
     29 CBE         -2.6390     0.6170     0.6320 cd         1 B50      -0.109000
     30 CBF         -1.2210     0.4330     0.6350 cd         1 B50      -0.061000
     31 CBG         -0.6180     1.6820     0.5030 cc         1 B50      -0.228600
     32 CBH         -1.2100     6.0540    -1.2890 c3         1 B50       0.166300
     33 NBI          7.6730    -3.9130    -0.3410 n3         1 B50      -0.717600
     34 NBJ          5.8910    -1.5110    -0.1560 n3         1 B50      -0.724600
     35 NBK         -1.6730     2.6070     0.4670 na         1 B50       0.065000
     36 HAA          9.4150    -4.9570    -0.9860 h1         1 B50       0.030367
     37 HAAA         8.0580    -6.0010    -0.5110 h1         1 B50       0.030367
     38 HAAB         8.0070    -5.1290    -2.0620 h1         1 B50       0.030367
     39 HOAC        -0.7160     8.1300    -3.8010 ho         1 B50       0.443000
     40 HAF          1.2050    -4.3790     0.5340 ha         1 B50       0.114000
     41 HAG          1.6740    -2.7140    -1.2610 ha         1 B50       0.115000
     42 HAH         -0.4010    -3.8210     2.3580 ha         1 B50       0.115000
     43 HAI          0.5480    -0.4990    -1.2330 ha         1 B50       0.120500
     44 HAJ         -1.5180    -1.6000     2.4000 ha         1 B50       0.120500
     45 HAK         -6.9550    -0.7170     1.8220 ha         1 B50       0.127500
     46 HAL         -4.4680    -3.6440    -0.1310 ha         1 B50       0.127500
     47 HAM         -5.1270     0.9400     1.6910 ha         1 B50       0.120500
     48 HAN         -2.6490    -1.9940    -0.3160 ha         1 B50       0.120500
     49 HAO         -3.8240     2.5050     0.6530 h4         1 B50       0.151000
     50 HAP         -1.8410     6.1230    -3.3750 h1         1 B50       0.020700
     51 HAPA        -0.0860     6.0110    -3.1500 h1         1 B50       0.020700
     52 HAQ          3.3050    -1.1490     0.9970 hc         1 B50       0.054200
     53 HAQA         3.4160    -0.4420    -0.6190 hc         1 B50       0.054200
     54 HAR          3.4270     1.1420     2.0120 h1         1 B50       0.050700
     55 HARA         3.5000     1.8410     0.3760 h1         1 B50       0.050700
     56 HAS         -0.5700     4.0120    -1.5980 hc         1 B50       0.062700
     57 HASA        -2.3150     4.2260    -1.6940 hc         1 B50       0.062700
     58 HAT          5.6380     0.5770     0.0390 h1         1 B50       0.032700
     59 HATA         5.5600    -0.3070     1.5660 h1         1 B50       0.032700
     60 HAU          7.7590    -2.5700    -2.0030 h1         1 B50       0.037200
     61 HAUA         9.1440    -2.4670    -0.9090 h1         1 B50       0.037200
     62 HAV          5.8990    -4.9660     0.2270 h1         1 B50       0.037200
     63 HAVA         5.7770    -4.1000    -1.3090 h1         1 B50       0.037200
     64 HAW          7.7910    -1.3360     0.8110 h1         1 B50       0.037700
     65 HAWA         7.6720    -0.4670    -0.7240 h1         1 B50       0.037700
     66 HAX          4.4210    -2.9820     0.3940 h1         1 B50       0.037700
     67 HAXA         5.7930    -2.8640     1.5040 h1         1 B50       0.037700
     68 HAY         -0.6920     4.4170     0.9170 h1         1 B50       0.073700
     69 HAYA        -2.4450     4.5300     0.7750 h1         1 B50       0.073700
     70 HNAZ         1.1910     0.0920     1.1250 hn         1 B50       0.328500
     71 HBH         -0.3060     6.3370    -0.7300 h1         1 B50       0.096700
     72 ClAE        -7.1280    -3.4670     0.9710 cl         1 B50      -0.209000
     73 CAS         -1.4190     4.5310    -1.1380 c3         1 B50      -0.132400
     74 HOAD        -2.3260     7.6290    -1.2000 ho         1 B50       0.433000
@<TRIPOS>BOND
     1     1    33 1   
     2     1    36 1   
     3     1    37 1   
     4     1    38 1   
     5     2    25 2   
     6     3    15 1   
     7     3    39 1   
     8     4    32 1   
     9     4    74 1   
    10     5     6 ar  
    11     5     7 ar  
    12     5    40 1   
    13     6     8 ar  
    14     6    41 1   
    15     7     9 ar  
    16     7    42 1   
    17     8    28 ar  
    18     8    43 1   
    19     9    28 ar  
    20     9    44 1   
    21    10    12 ar  
    22    10    26 ar  
    23    10    45 1   
    24    11    13 ar  
    25    11    26 ar  
    26    11    46 1   
    27    12    27 ar  
    28    12    47 1   
    29    13    27 ar  
    30    13    48 1   
    31    14    29 2   
    32    14    35 1   
    33    14    49 1   
    34    15    32 1   
    35    15    50 1   
    36    15    51 1   
    37    16    17 1   
    38    16    18 1   
    39    16    52 1   
    40    16    53 1   
    41    17    24 1   
    42    17    54 1   
    43    17    55 1   
    44    18    34 1   
    45    18    58 1   
    46    18    59 1   
    47    19    21 1   
    48    19    33 1   
    49    19    60 1   
    50    19    61 1   
    51    20    22 1   
    52    20    33 1   
    53    20    62 1   
    54    20    63 1   
    55    21    34 1   
    56    21    64 1   
    57    21    65 1   
    58    22    34 1   
    59    22    66 1   
    60    22    67 1   
    61    23    35 1   
    62    23    68 1   
    63    23    69 1   
    64    23    73 1   
    65    24    25 1   
    66    24    70 1   
    67    25    31 1   
    68    26    72 1   
    69    27    29 1   
    70    28    30 1   
    71    29    30 1   
    72    30    31 2   
    73    31    35 1   
    74    32    71 1   
    75    32    73 1   
    76    56    73 1   
    77    57    73 1   
@<TRIPOS>SUBSTRUCTURE
     1 B50         1 TEMP              0 ****  ****    0 ROOT
