@<TRIPOS>MOLECULE
B52
   29    30     1     0     0
SMALL
No Charge or Current Charge


@<TRIPOS>ATOM
      1 C2          -1.4590     0.7400     0.0960 cc         1 B52       0.444600
      2 C3          -3.5340    -0.0770     0.2890 cd         1 B52       0.764800
      3 C4          -1.8770    -1.6660    -0.1950 c          1 B52       0.611200
      4 C1          -0.9560    -0.5180    -0.1660 cd         1 B52      -0.453400
      5 C17          3.4500    -0.4020     0.5810 c          1 B52       0.741000
      6 O19          3.3530     0.0900     1.6950 o          1 B52      -0.718500
      7 C15          2.8160     0.3400    -0.5930 c3         1 B52      -0.248000
      8 C16          3.6040     1.6410    -0.9130 c3         1 B52      -0.054100
      9 C11          1.3280     0.5300    -0.3480 cc         1 B52       0.406300
     10 C12          0.4870    -0.7080    -0.4120 c          1 B52       0.499000
     11 O13          0.9560    -1.8150    -0.6590 o          1 B52      -0.506100
     12 N3           0.8590     1.7580    -0.1040 nd         1 B52      -0.446400
     13 N4          -0.5190     1.7930     0.1050 na         1 B52      -0.298500
     14 C14         -1.0080     3.1710     0.3750 c3         1 B52       0.245100
     15 O4          -1.5810    -2.8290    -0.4070 o          1 B52      -0.524000
     16 N1          -2.7900     0.9780     0.3310 nc         1 B52      -0.781300
     17 N6          -4.8130     0.1430     0.5040 nv         1 B52      -1.070200
     18 N2          -3.1540    -1.3230     0.0450 ns         1 B52      -0.460400
     19 H15          2.9390    -0.2920    -1.4800 hc         1 B52       0.066700
     20 H16          3.5830     2.3390    -0.0670 hc         1 B52       0.019033
     21 H16A         4.6520     1.4080    -1.1320 hc         1 B52       0.019033
     22 H16B         3.1800     2.1460    -1.7900 hc         1 B52       0.019033
     23 H14         -1.4800     3.2090     1.3650 h1         1 B52       0.044367
     24 H14A        -0.1830     3.8950     0.3540 h1         1 B52       0.044367
     25 H14B        -1.7440     3.4590    -0.3860 h1         1 B52       0.044367
     26 HN6         -5.0410     1.1290     0.4840 hn         1 B52       0.502000
     27 HN6A        -5.4660    -0.4570     0.0160 hn         1 B52       0.502000
     28 HN2         -3.8280    -2.0690     0.0590 hn         1 B52       0.309500
     29 O18          4.0120    -1.4630     0.3590 o          1 B52      -0.718500
@<TRIPOS>BOND
     1     1     4 2   
     2     1    13 1   
     3     1    16 1   
     4     2    16 2   
     5     2    17 1   
     6     2    18 1   
     7     3     4 1   
     8     3    15 2   
     9     3    18 1   
    10     4    10 1   
    11     5     6 1   
    12     5     7 1   
    13     5    29 1   
    14     7     8 1   
    15     7     9 1   
    16     7    19 1   
    17     8    20 1   
    18     8    21 1   
    19     8    22 1   
    20     9    10 1   
    21     9    12 2   
    22    10    11 2   
    23    12    13 1   
    24    13    14 1   
    25    14    23 1   
    26    14    24 1   
    27    14    25 1   
    28    17    26 1   
    29    17    27 1   
    30    18    28 1   
@<TRIPOS>SUBSTRUCTURE
     1 B52         1 TEMP              0 ****  ****    0 ROOT
