@<TRIPOS>MOLECULE
B52
   29    30     1     0     0
SMALL
abcg2


@<TRIPOS>ATOM
      1 C2          -1.3670     0.7070     0.0300 cc         1 B52       0.444600
      2 C3          -3.5130     0.0310     0.2580 cd         1 B52       0.764800
      3 C4          -1.8360    -1.6680    -0.1980 c          1 B52       0.611200
      4 C1          -0.8800    -0.5860    -0.2070 cd         1 B52      -0.453400
      5 C17          3.4290    -0.4370     0.5510 c          1 B52       0.741000
      6 O19          2.8300    -0.3830     1.6390 o          1 B52      -0.718500
      7 C15          2.7880     0.3410    -0.6280 c3         1 B52      -0.248000
      8 C16          3.4840     1.6880    -0.7860 c3         1 B52      -0.054100
      9 C11          1.3170     0.4480    -0.4090 cc         1 B52       0.406300
     10 C12          0.5200    -0.7950    -0.4470 c          1 B52       0.499000
     11 O13          1.0590    -1.8710    -0.6770 o          1 B52      -0.506100
     12 N3           0.8040     1.6050    -0.1970 nd         1 B52      -0.446400
     13 N4          -0.5060     1.7440     0.0270 na         1 B52      -0.298500
     14 C14         -0.9620     3.1030     0.2640 c3         1 B52       0.245100
     15 O4          -1.6120    -2.8510    -0.3640 o          1 B52      -0.524000
     16 N1          -2.6500     1.0160     0.2650 nc         1 B52      -0.781300
     17 N6          -4.7970     0.2850     0.4850 nv         1 B52      -1.070200
     18 N2          -3.1470    -1.2540     0.0330 ns         1 B52      -0.460400
     19 H15          2.9510    -0.2400    -1.5400 hc         1 B52       0.066700
     20 H16          3.3850     2.3010     0.1100 hc         1 B52       0.019033
     21 H16A         4.5460     1.5320    -0.9730 hc         1 B52       0.019033
     22 H16B         3.0750     2.2580    -1.6220 hc         1 B52       0.019033
     23 H14         -1.4050     3.2000     1.2530 h1         1 B52       0.044367
     24 H14A        -0.0930     3.7480     0.1960 h1         1 B52       0.044367
     25 H14B        -1.6960     3.4060    -0.4790 h1         1 B52       0.044367
     26 HN6         -5.0880     1.2380     0.6220 hn         1 B52       0.502000
     27 HN6A        -5.5080    -0.4240     0.4370 hn         1 B52       0.502000
     28 HN2         -3.8480    -1.9840     0.0450 hn         1 B52       0.309500
     29 O18          4.5080    -1.0070     0.3180 o          1 B52      -0.718500
@<TRIPOS>BOND
     1     1     4 2   
     2     1    13 1   
     3     1    16 1   
     4     2    16 2   
     5     2    17 1   
     6     2    18 1   
     7     3     4 1   
     8     3    15 2   
     9     3    18 1   
    10     4    10 1   
    11     5     6 1   
    12     5     7 1   
    13     5    29 1   
    14     7     8 1   
    15     7     9 1   
    16     7    19 1   
    17     8    20 1   
    18     8    21 1   
    19     8    22 1   
    20     9    10 1   
    21     9    12 2   
    22    10    11 2   
    23    12    13 1   
    24    13    14 1   
    25    14    23 1   
    26    14    24 1   
    27    14    25 1   
    28    17    26 1   
    29    17    27 1   
    30    18    28 1   
@<TRIPOS>SUBSTRUCTURE
     1 B52         1 TEMP              0 ****  ****    0 ROOT
