@<TRIPOS>MOLECULE
B54
   38    39     1     0     0
SMALL
No Charge or Current Charge


@<TRIPOS>ATOM
      1 O22         -8.2790    -1.3680     0.0150 o          1 B54      -0.723000
      2 C21         -7.9140    -0.2010     0.0180 c          1 B54       0.714600
      3 O23         -8.6980     0.7380     0.0160 o          1 B54      -0.723000
      4 C18         -6.4240     0.0960     0.0240 ca         1 B54      -0.156600
      5 C19         -5.9520     1.4290     0.0270 ca         1 B54      -0.056500
      6 C20         -4.5730     1.7000     0.0320 ca         1 B54      -0.197500
      7 C17         -5.4770    -0.9550     0.0260 ca         1 B54      -0.056500
      8 C16         -4.0970    -0.6810     0.0320 ca         1 B54      -0.197500
      9 C15         -3.6400     0.6530     0.0350 ca         1 B54       0.096100
     10 O14         -2.3010     0.9810     0.0400 os         1 B54      -0.363100
     11 C13         -1.2680    -0.0200     0.0430 c3         1 B54       0.176600
     12 C12          0.0880     0.7100     0.0490 c3         1 B54      -0.105400
     13 C11          1.2770    -0.2670     0.0530 c3         1 B54       0.221800
     14 N10          2.5530     0.4680     0.0580 nu         1 B54      -0.761200
     15 C4           3.8170    -0.0450     0.0690 cc         1 B54       0.536600
     16 C5           4.9610     0.7380     0.0810 cd         1 B54      -0.346600
     17 N9           4.7700     2.1150     0.0840 nf         1 B54      -0.011300
     18 O24          5.7380     2.8920     0.0100 o          1 B54      -0.257300
     19 C2           6.2630     0.0290     0.0970 c          1 B54       0.606200
     20 O8           7.3590     0.5660     0.1190 o          1 B54      -0.510000
     21 N2           6.1610    -1.3100     0.0860 ns         1 B54      -0.462400
     22 C1           4.9980    -1.9380     0.0730 cd         1 B54       0.795800
     23 N1           3.8220    -1.4100     0.0640 nc         1 B54      -0.797300
     24 N7           5.0090    -3.2520     0.0600 nv         1 B54      -1.049200
     25 H19         -6.6530     2.2610     0.0250 ha         1 B54       0.128000
     26 H20         -4.2260     2.7300     0.0340 ha         1 B54       0.094000
     27 H17         -5.8080    -1.9920     0.0240 ha         1 B54       0.128000
     28 H16         -3.4030    -1.5160     0.0340 ha         1 B54       0.094000
     29 H13         -1.3460    -0.6550     0.9350 h1         1 B54       0.030200
     30 H13A        -1.3390    -0.6540    -0.8500 h1         1 B54       0.030200
     31 H12          0.1490     1.3550    -0.8350 hc         1 B54       0.062700
     32 H12A         0.1430     1.3540     0.9350 hc         1 B54       0.062700
     33 H11          1.2120    -0.9120     0.9400 h1         1 B54       0.058700
     34 H11A         1.2190    -0.9110    -0.8360 h1         1 B54       0.058700
     35 HN10         2.5250     1.4850     0.0600 hn         1 B54       0.533000
     36 HN7          5.7680    -3.6830    -0.4510 hn         1 B54       0.514500
     37 HN7A         4.0960    -3.6400    -0.1310 hn         1 B54       0.514500
     38 H15          7.0190    -1.8320     0.1200 hn         1 B54       0.318500
@<TRIPOS>BOND
     1     1     2 1   
     2     2     3 1   
     3     2     4 1   
     4     4     5 ar  
     5     4     7 ar  
     6     5     6 ar  
     7     5    25 1   
     8     6     9 ar  
     9     6    26 1   
    10     7     8 ar  
    11     7    27 1   
    12     8     9 ar  
    13     8    28 1   
    14     9    10 1   
    15    10    11 1   
    16    11    12 1   
    17    11    29 1   
    18    11    30 1   
    19    12    13 1   
    20    12    31 1   
    21    12    32 1   
    22    13    14 1   
    23    13    33 1   
    24    13    34 1   
    25    14    15 1   
    26    14    35 1   
    27    15    16 2   
    28    15    23 1   
    29    16    17 1   
    30    16    19 1   
    31    17    18 2   
    32    19    20 2   
    33    19    21 1   
    34    21    22 1   
    35    21    38 1   
    36    22    23 2   
    37    22    24 1   
    38    24    36 1   
    39    24    37 1   
@<TRIPOS>SUBSTRUCTURE
     1 B54         1 TEMP              0 ****  ****    0 ROOT
