@<TRIPOS>MOLECULE
B54
   38    39     1     0     0
SMALL
bcc


@<TRIPOS>ATOM
      1 O22         -8.0340    -1.5710     0.0540 o          1 B54      -0.828300
      2 C21         -7.7600    -0.3540     0.0480 c          1 B54       0.925200
      3 O23         -8.5760     0.5890     0.0490 o          1 B54      -0.828300
      4 C18         -6.2870     0.0150     0.0380 ca         1 B54      -0.156600
      5 C19         -5.8730     1.3480     0.0540 ca         1 B54      -0.074500
      6 C20         -4.5330     1.6890     0.0470 ca         1 B54      -0.215500
      7 C17         -5.3010    -0.9640     0.0130 ca         1 B54      -0.074500
      8 C16         -3.9480    -0.6450     0.0040 ca         1 B54      -0.215500
      9 C15         -3.5560     0.6920     0.0230 ca         1 B54       0.096100
     10 O14         -2.2730     1.1090     0.0200 os         1 B54      -0.339900
     11 C13         -1.2420     0.1390     0.0090 c3         1 B54       0.153400
     12 C12          0.0870     0.8650     0.0360 c3         1 B54      -0.105400
     13 C11          1.2280    -0.1400     0.0290 c3         1 B54       0.221800
     14 N10          2.4990     0.5510     0.0530 nu         1 B54      -0.706000
     15 C4           3.6750    -0.0580     0.0440 cc         1 B54       0.536600
     16 C5           4.8830     0.7180     0.0740 cd         1 B54      -0.346600
     17 N9           4.7120     2.0570     0.1040 nf         1 B54      -0.011300
     18 O24          5.6830     2.8050     0.1300 o          1 B54      -0.257300
     19 C2           6.1470     0.0240     0.0710 c          1 B54       0.748700
     20 O8           7.2610     0.5070     0.0960 o          1 B54      -0.585500
     21 N2           6.0150    -1.3660     0.0340 ns         1 B54      -0.529400
     22 C1           4.8290    -2.0150     0.0010 cd         1 B54       0.795800
     23 N1           3.6680    -1.3910     0.0080 nc         1 B54      -0.797300
     24 N7           4.8460    -3.3370    -0.0380 nv         1 B54      -0.938800
     25 H19         -6.6160     2.1350     0.0720 ha         1 B54       0.146000
     26 H20         -4.2310     2.7290     0.0610 ha         1 B54       0.112000
     27 H17         -5.5900    -2.0060    -0.0010 ha         1 B54       0.146000
     28 H16         -3.2250    -1.4480    -0.0160 ha         1 B54       0.112000
     29 H13         -1.3270    -0.5230     0.8790 h1         1 B54       0.030200
     30 H13A        -1.3110    -0.4870    -0.8890 h1         1 B54       0.030200
     31 H12          0.1670     1.5230    -0.8330 hc         1 B54       0.062700
     32 H12A         0.1480     1.4890     0.9320 hc         1 B54       0.062700
     33 H11          1.1510    -0.8030     0.8950 h1         1 B54       0.058700
     34 H11A         1.1670    -0.7730    -0.8600 h1         1 B54       0.058700
     35 HN10         2.5140     1.5600     0.0790 hn         1 B54       0.477800
     36 HN7          5.7000    -3.8690    -0.0570 hn         1 B54       0.459300
     37 HN7A         3.9750    -3.8380    -0.0780 hn         1 B54       0.459300
     38 H15          6.8760    -1.8990     0.0290 hn         1 B54       0.318500
@<TRIPOS>BOND
     1     1     2 1   
     2     2     3 1   
     3     2     4 1   
     4     4     5 ar  
     5     4     7 ar  
     6     5     6 ar  
     7     5    25 1   
     8     6     9 ar  
     9     6    26 1   
    10     7     8 ar  
    11     7    27 1   
    12     8     9 ar  
    13     8    28 1   
    14     9    10 1   
    15    10    11 1   
    16    11    12 1   
    17    11    29 1   
    18    11    30 1   
    19    12    13 1   
    20    12    31 1   
    21    12    32 1   
    22    13    14 1   
    23    13    33 1   
    24    13    34 1   
    25    14    15 1   
    26    14    35 1   
    27    15    16 2   
    28    15    23 1   
    29    16    17 1   
    30    16    19 1   
    31    17    18 2   
    32    19    20 2   
    33    19    21 1   
    34    21    22 1   
    35    21    38 1   
    36    22    23 2   
    37    22    24 1   
    38    24    36 1   
    39    24    37 1   
@<TRIPOS>SUBSTRUCTURE
     1 B54         1 TEMP              0 ****  ****    0 ROOT
