@<TRIPOS>MOLECULE
B55
   17    18     1     0     0
SMALL
bcc


@<TRIPOS>ATOM
      1 O1          -1.4080    -2.6440     0.0910 o          1 B55      -0.583500
      2 C5          -1.2750    -1.4330     0.0500 c          1 B55       0.666000
      3 C2          -0.0750    -0.6650     0.0230 cc         1 B55       0.144800
      4 N1           1.2340    -1.0670     0.0230 nc         1 B55      -0.543000
      5 N4          -2.3950    -0.5930     0.0210 ns         1 B55      -0.527400
      6 C4          -2.3780     0.7720    -0.0300 cc         1 B55       0.748800
      7 N3          -3.5620     1.3920    -0.0830 nv         1 B55      -0.940800
      8 N2          -1.2700     1.4740    -0.0540 nd         1 B55      -0.715100
      9 C3          -0.1680     0.7160    -0.0260 cd         1 B55       0.144800
     10 N5           1.1160     1.1490    -0.0380 na         1 B55      -0.299900
     11 C1           1.9170     0.0360    -0.0150 cd         1 B55       0.487800
     12 S1           3.6620     0.1260     0.0750 sh         1 B55      -0.316100
     13 HN4         -3.2930    -1.0600     0.0330 hn         1 B55       0.323500
     14 HN3         -4.4230     0.9030     0.0910 hn         1 B55       0.451300
     15 HN3A        -3.5790     2.3940    -0.0040 hn         1 B55       0.451300
     16 HN5          1.4240     2.1100    -0.0590 hn         1 B55       0.318700
     17 HS1          3.8620     0.8100    -1.0600 hs         1 B55       0.187800
@<TRIPOS>BOND
     1     1     2 2   
     2     2     3 1   
     3     2     5 1   
     4     3     4 1   
     5     3     9 2   
     6     4    11 2   
     7     5     6 1   
     8     5    13 1   
     9     6     7 1   
    10     6     8 2   
    11     7    14 1   
    12     7    15 1   
    13     8     9 1   
    14     9    10 1   
    15    10    11 1   
    16    10    16 1   
    17    11    12 1   
    18    12    17 1   
@<TRIPOS>SUBSTRUCTURE
     1 B55         1 TEMP              0 ****  ****    0 ROOT
