@<TRIPOS>MOLECULE
B55
   17    18     1     0     0
SMALL
No Charge or Current Charge


@<TRIPOS>ATOM
      1 O1          -1.4720    -2.6480     0.2230 o          1 B55      -0.508000
      2 C5          -1.3730    -1.4360     0.0980 c          1 B55       0.523500
      3 C2          -0.1130    -0.6670    -0.0090 cc         1 B55       0.079500
      4 N1           1.1850    -1.1200     0.0100 nc         1 B55      -0.543000
      5 N4          -2.4620    -0.6220     0.0390 ns         1 B55      -0.460400
      6 C4          -2.3880     0.7200    -0.1040 cc         1 B55       0.748800
      7 N3          -3.5360     1.3640    -0.1410 nv         1 B55      -1.051200
      8 N2          -1.3030     1.4550    -0.2070 nd         1 B55      -0.715100
      9 C3          -0.1420     0.6920    -0.1520 cd         1 B55       0.159400
     10 N5           1.1580     1.1060    -0.2240 na         1 B55      -0.299500
     11 C1           1.9390    -0.0340    -0.1210 cd         1 B55       0.487800
     12 S1           3.7020    -0.0290    -0.1600 sh         1 B55      -0.316100
     13 HN4         -3.3660    -1.0650     0.0780 hn         1 B55       0.323500
     14 HN3         -4.2880     0.9710     0.4100 hn         1 B55       0.506500
     15 HN3A        -3.4330     2.3680    -0.0660 hn         1 B55       0.506500
     16 HN5          1.4840     2.0540    -0.3320 hn         1 B55       0.369000
     17 HS1          3.7980     1.3110    -0.3040 hs         1 B55       0.187800
@<TRIPOS>BOND
     1     1     2 2   
     2     2     3 1   
     3     2     5 1   
     4     3     4 1   
     5     3     9 2   
     6     4    11 2   
     7     5     6 1   
     8     5    13 1   
     9     6     7 1   
    10     6     8 2   
    11     7    14 1   
    12     7    15 1   
    13     8     9 1   
    14     9    10 1   
    15    10    11 1   
    16    10    16 1   
    17    11    12 1   
    18    12    17 1   
@<TRIPOS>SUBSTRUCTURE
     1 B55         1 TEMP              0 ****  ****    0 ROOT
