@<TRIPOS>MOLECULE
B56
   24    25     1     0     0
SMALL
No Charge or Current Charge


@<TRIPOS>ATOM
      1 O9          -1.2010    -2.8920     0.4760 o          1 B56      -0.548000
      2 C8          -1.4210    -1.6980     0.3210 c          1 B56       0.604200
      3 N7          -2.6760    -1.2260     0.2280 ns         1 B56      -0.452400
      4 C5          -2.9580     0.0650     0.0560 cc         1 B56       0.733800
      5 N6          -4.2350     0.3760    -0.0290 nv         1 B56      -1.070200
      6 N4          -2.1250     1.0560    -0.0420 nd         1 B56      -0.773300
      7 C10         -0.3910    -0.6430     0.2150 cc         1 B56      -0.175600
      8 C3          -0.7920     0.6800     0.0480 cd         1 B56       0.424600
      9 N1           0.1400     1.7190    -0.0340 nh         1 B56      -0.654400
     10 C2          -0.2290     3.1260    -0.3140 c3         1 B56       0.216100
     11 C16          1.5470     1.4510     0.4250 c6         1 B56       0.142500
     12 N11          0.9730    -0.9740     0.2570 ne         1 B56      -0.486300
     13 C12          1.9010    -0.0400     0.1260 cf         1 B56       0.313300
     14 C13          3.2990    -0.3650    -0.4180 c          1 B56       0.636700
     15 O15          4.1200     0.5400    -0.5340 o          1 B56      -0.703500
     16 O14          3.5810    -1.5240    -0.7130 o          1 B56      -0.703500
     17 HN7         -3.4230    -1.8930     0.3150 hn         1 B56       0.305500
     18 HN6         -4.8410    -0.3210    -0.4440 hn         1 B56       0.492000
     19 HN6A        -4.3930     1.3250    -0.3420 hn         1 B56       0.492000
     20 H2          -0.8000     3.1940    -1.2490 h1         1 B56       0.033033
     21 H2A         -0.8420     3.5300     0.5020 h1         1 B56       0.033033
     22 H2B          0.6650     3.7540    -0.4160 h1         1 B56       0.033033
     23 H16          2.2540     2.1250    -0.0780 h1         1 B56       0.054200
     24 H9           1.6270     1.6280     1.5070 h1         1 B56       0.054200
@<TRIPOS>BOND
     1     1     2 2   
     2     2     3 1   
     3     2     7 1   
     4     3     4 1   
     5     3    17 1   
     6     4     5 1   
     7     4     6 2   
     8     5    18 1   
     9     5    19 1   
    10     6     8 1   
    11     7     8 2   
    12     7    12 1   
    13     8     9 1   
    14     9    10 1   
    15     9    11 1   
    16    10    20 1   
    17    10    21 1   
    18    10    22 1   
    19    11    13 1   
    20    11    23 1   
    21    11    24 1   
    22    12    13 2   
    23    13    14 1   
    24    14    15 1   
    25    14    16 1   
@<TRIPOS>SUBSTRUCTURE
     1 B56         1 TEMP              0 ****  ****    0 ROOT
