@<TRIPOS>MOLECULE
B56
   24    25     1     0     0
SMALL
abcg2


@<TRIPOS>ATOM
      1 O9          -1.1070    -2.8680     0.2190 o          1 B56      -0.548000
      2 C8          -1.3170    -1.6620     0.1410 c          1 B56       0.604200
      3 N7          -2.6410    -1.2060     0.1180 ns         1 B56      -0.452400
      4 C5          -2.9830     0.0950    -0.0040 cc         1 B56       0.733800
      5 N6          -4.2830     0.4020    -0.0120 nv         1 B56      -1.070200
      6 N4          -2.0960     1.0570    -0.0840 nd         1 B56      -0.773300
      7 C10         -0.3560    -0.6190     0.0700 cc         1 B56      -0.175600
      8 C3          -0.7980     0.7090    -0.0340 cd         1 B56       0.424600
      9 N1           0.1190     1.6830    -0.1330 nh         1 B56      -0.654400
     10 C2          -0.2300     3.0790    -0.2460 c3         1 B56       0.216100
     11 C16          1.5110     1.4200     0.1920 c6         1 B56       0.142500
     12 N11          0.9800    -0.9550    -0.0080 ne         1 B56      -0.486300
     13 C12          1.8580    -0.0340     0.0180 cf         1 B56       0.313300
     14 C13          3.3380    -0.3840    -0.0470 c          1 B56       0.636700
     15 O15          4.1090     0.5790     0.1480 o          1 B56      -0.703500
     16 O14          3.6440    -1.5660    -0.2700 o          1 B56      -0.703500
     17 HN7         -3.3620    -1.9120     0.1820 hn         1 B56       0.305500
     18 HN6         -4.9940    -0.3030    -0.1020 hn         1 B56       0.492000
     19 HN6A        -4.5470     1.3510    -0.2130 hn         1 B56       0.492000
     20 H2          -1.2460     3.1950    -0.6050 h1         1 B56       0.033033
     21 H2A         -0.1380     3.5910     0.7170 h1         1 B56       0.033033
     22 H2B          0.4520     3.5600    -0.9490 h1         1 B56       0.033033
     23 H16          2.1370     2.0360    -0.4560 h1         1 B56       0.054200
     24 H9           1.7290     1.7460     1.2210 h1         1 B56       0.054200
@<TRIPOS>BOND
     1     1     2 2   
     2     2     3 1   
     3     2     7 1   
     4     3     4 1   
     5     3    17 1   
     6     4     5 1   
     7     4     6 2   
     8     5    18 1   
     9     5    19 1   
    10     6     8 1   
    11     7     8 2   
    12     7    12 1   
    13     8     9 1   
    14     9    10 1   
    15     9    11 1   
    16    10    20 1   
    17    10    21 1   
    18    10    22 1   
    19    11    13 1   
    20    11    23 1   
    21    11    24 1   
    22    12    13 2   
    23    13    14 1   
    24    14    15 1   
    25    14    16 1   
@<TRIPOS>SUBSTRUCTURE
     1 B56         1 TEMP              0 ****  ****    0 ROOT
