@<TRIPOS>MOLECULE
B57
   17    17     1     0     0
SMALL
No Charge or Current Charge


@<TRIPOS>ATOM
      1 O7           0.3240    -2.3700    -0.3720 o          1 B57      -0.487000
      2 C1          -0.1880    -1.2760    -0.2080 c          1 B57       0.623200
      3 C6           0.5190    -0.0310     0.0030 cc         1 B57      -0.514300
      4 N8           1.9250    -0.1720     0.0290 no         1 B57       0.727100
      5 O10          2.5740     0.5580    -0.7260 o          1 B57      -0.436000
      6 O9           2.4120    -0.7780     0.9880 o          1 B57      -0.436000
      7 N2          -1.5150    -1.1150    -0.2230 ns         1 B57      -0.464400
      8 C3          -2.0960     0.0710    -0.0820 cc         1 B57       0.793800
      9 N11         -3.4090     0.0930    -0.1180 nv         1 B57      -1.043200
     10 N4          -1.5160     1.2200     0.0780 nd         1 B57      -0.805300
     11 C5          -0.1560     1.1460     0.1170 cd         1 B57       0.548600
     12 N12          0.3850     2.3410     0.2850 nv         1 B57      -0.919000
     13 HN2         -2.0780    -1.9310    -0.3890 hn         1 B57       0.333500
     14 HN11        -3.8730    -0.7020     0.3020 hn         1 B57       0.509500
     15 HN1A        -3.7830     0.9910     0.1570 hn         1 B57       0.509500
     16 HN12         1.3290     2.4680    -0.0600 hn         1 B57       0.530500
     17 HN1B        -0.2430     3.1210     0.1360 hn         1 B57       0.530500
@<TRIPOS>BOND
     1     1     2 2   
     2     2     3 1   
     3     2     7 1   
     4     3     4 1   
     5     3    11 2   
     6     4     5 1   
     7     4     6 1   
     8     7     8 1   
     9     7    13 1   
    10     8     9 1   
    11     8    10 2   
    12     9    14 1   
    13     9    15 1   
    14    10    11 1   
    15    11    12 1   
    16    12    16 1   
    17    12    17 1   
@<TRIPOS>SUBSTRUCTURE
     1 B57         1 TEMP              0 ****  ****    0 ROOT
