@<TRIPOS>MOLECULE
B57
   17    17     1     0     0
SMALL
bcc


@<TRIPOS>ATOM
      1 O7           0.2660    -2.4400    -0.1000 o          1 B57      -0.562500
      2 C1          -0.1460    -1.3030    -0.0570 c          1 B57       0.765700
      3 C6           0.5750    -0.0570    -0.0070 cc         1 B57      -0.514300
      4 N8           1.9940    -0.0900     0.0460 no         1 B57       0.347100
      5 O10          2.6020     0.9740     0.0130 o          1 B57      -0.246000
      6 O9           2.5560    -1.1530     0.1260 o          1 B57      -0.246000
      7 N2          -1.5410    -1.1230    -0.0710 ns         1 B57      -0.531400
      8 C3          -2.1510     0.0750    -0.0410 cc         1 B57       0.793800
      9 N11         -3.4930     0.1030    -0.0670 nv         1 B57      -0.932800
     10 N4          -1.4960     1.1980    -0.0150 nd         1 B57      -0.805300
     11 C5          -0.1470     1.1640    -0.0090 cd         1 B57       0.548600
     12 N12          0.4150     2.3640     0.0040 nv         1 B57      -0.808600
     13 HN2         -2.0720    -1.9810    -0.1150 hn         1 B57       0.333500
     14 HN11        -4.0450    -0.7130     0.1200 hn         1 B57       0.454300
     15 HN1A        -3.9360     0.9960     0.0590 hn         1 B57       0.454300
     16 HN12         1.4180     2.4540     0.0120 hn         1 B57       0.475300
     17 HN1B        -0.1880     3.1670     0.0180 hn         1 B57       0.475300
@<TRIPOS>BOND
     1     1     2 2   
     2     2     3 1   
     3     2     7 1   
     4     3     4 1   
     5     3    11 2   
     6     4     5 1   
     7     4     6 1   
     8     7     8 1   
     9     7    13 1   
    10     8     9 1   
    11     8    10 2   
    12     9    14 1   
    13     9    15 1   
    14    10    11 1   
    15    11    12 1   
    16    12    16 1   
    17    12    17 1   
@<TRIPOS>SUBSTRUCTURE
     1 B57         1 TEMP              0 ****  ****    0 ROOT
