@<TRIPOS>MOLECULE
B58
   17    18     1     0     0
SMALL
bcc


@<TRIPOS>ATOM
      1 N10          2.8000     0.4900     0.2200 nv         1 B58      -0.916500
      2 C6           1.4420     0.5750     0.0830 ca         1 B58       0.632200
      3 N1           0.8730     1.7550     0.0170 nb         1 B58      -0.398000
      4 N2          -0.4600     1.8970    -0.0450 nb         1 B58      -0.357000
      5 C5           0.6370    -0.5890     0.0590 ca         1 B58      -0.043900
      6 N7           0.9660    -1.9140     0.0890 nc         1 B58      -0.554100
      7 C8          -0.1820    -2.5330     0.0120 cd         1 B58       0.401700
      8 N9          -1.2360    -1.6870    -0.0660 na         1 B58      -0.230300
      9 C4          -0.7280    -0.4230    -0.0370 ca         1 B58      -0.194500
     10 C3          -1.2780     0.8760    -0.0820 ca         1 B58       0.570200
     11 N11         -2.6270     1.0950    -0.2290 nv         1 B58      -0.917500
     12 HN10         3.3120     1.3160    -0.0480 hn         1 B58       0.415300
     13 HN1A         3.2250    -0.3610    -0.1110 hn         1 B58       0.415300
     14 H8          -0.3180    -3.6030     0.0060 h5         1 B58       0.068800
     15 HN9         -2.2030    -1.9630    -0.1440 hn         1 B58       0.313700
     16 HN11        -2.8990     2.0510    -0.0540 hn         1 B58       0.396800
     17 HN1B        -3.2330     0.4500     0.2540 hn         1 B58       0.396800
@<TRIPOS>BOND
     1     1     2 1   
     2     1    12 1   
     3     1    13 1   
     4     2     3 ar  
     5     2     5 ar  
     6     3     4 ar  
     7     4    10 ar  
     8     5     6 1   
     9     5     9 ar  
    10     6     7 2   
    11     7     8 1   
    12     7    14 1   
    13     8     9 1   
    14     8    15 1   
    15     9    10 ar  
    16    10    11 1   
    17    11    16 1   
    18    11    17 1   
@<TRIPOS>SUBSTRUCTURE
     1 B58         1 TEMP              0 ****  ****    0 ROOT
