@<TRIPOS>MOLECULE
B58
   17    18     1     0     0
SMALL
No Charge or Current Charge


@<TRIPOS>ATOM
      1 N10          2.8150     0.5400     0.1660 nv         1 B58      -1.026900
      2 C6           1.4570     0.5620     0.0900 ca         1 B58       0.566900
      3 N1           0.9010     1.7980     0.0360 nb         1 B58      -0.398000
      4 N2          -0.4540     1.9400    -0.0490 nb         1 B58      -0.357000
      5 C5           0.6450    -0.6060     0.0550 ca         1 B58       0.021400
      6 N7           0.9920    -1.9570     0.0860 nc         1 B58      -0.554100
      7 C8          -0.2090    -2.5740     0.0170 cd         1 B58       0.401700
      8 N9          -1.2970    -1.6880    -0.0560 na         1 B58      -0.280600
      9 C4          -0.7090    -0.4450    -0.0290 ca         1 B58      -0.129200
     10 C3          -1.2600     0.8510    -0.0800 ca         1 B58       0.504900
     11 N11         -2.5910     1.1080    -0.1580 nv         1 B58      -1.027900
     12 HN10         3.3040     1.3870    -0.1030 hn         1 B58       0.470500
     13 HN1A         3.2720    -0.3430    -0.0370 hn         1 B58       0.470500
     14 H8          -0.3650    -3.6460     0.0130 h5         1 B58       0.068800
     15 HN9         -2.2760    -1.9340    -0.1310 hn         1 B58       0.364000
     16 HN11        -2.8880     2.0650     0.0080 hn         1 B58       0.452000
     17 HN1B        -3.2450     0.3750     0.0980 hn         1 B58       0.452000
@<TRIPOS>BOND
     1     1     2 1   
     2     1    12 1   
     3     1    13 1   
     4     2     3 ar  
     5     2     5 ar  
     6     3     4 ar  
     7     4    10 ar  
     8     5     6 1   
     9     5     9 ar  
    10     6     7 2   
    11     7     8 1   
    12     7    14 1   
    13     8     9 1   
    14     8    15 1   
    15     9    10 ar  
    16    10    11 1   
    17    11    16 1   
    18    11    17 1   
@<TRIPOS>SUBSTRUCTURE
     1 B58         1 TEMP              0 ****  ****    0 ROOT
