@<TRIPOS>MOLECULE
B59
   25    26     1     0     0
SMALL
bcc


@<TRIPOS>ATOM
      1 O17          0.8430    -2.7170    -0.0480 o          1 B59      -0.543500
      2 C1           1.0100    -1.5180    -0.0350 c          1 B59       0.759700
      3 N2           2.2780    -0.9480    -0.0380 n          1 B59      -0.507400
      4 C16          3.4490    -1.8210    -0.0590 c3         1 B59       0.084300
      5 C6          -0.0830    -0.5590    -0.0150 cc         1 B59      -0.149600
      6 C5           0.1920     0.8050    -0.0050 cd         1 B59       0.263200
      7 N4           1.4530     1.2740    -0.0110 n          1 B59      -0.385000
      8 C14          1.7030     2.7130     0.0030 c3         1 B59       0.064300
      9 C3           2.5450     0.4010    -0.0300 c          1 B59       0.836500
     10 O15          3.6750     0.8240    -0.0390 o          1 B59      -0.599500
     11 N7          -1.3340    -1.0090    -0.0070 nc         1 B59      -0.366300
     12 C8          -2.3430    -0.1920     0.0090 cd         1 B59       0.179300
     13 C11         -3.7070    -0.7580     0.0150 c          1 B59       0.510600
     14 O12         -3.9230    -1.9460     0.0070 o          1 B59      -0.478100
     15 C9          -2.1800     1.2550     0.0190 c          1 B59       0.608200
     16 O13         -3.0680     2.0810     0.0330 o          1 B59      -0.583500
     17 N10         -0.8440     1.6540     0.0120 ns         1 B59      -0.451100
     18 H16          3.1120    -2.8500    -0.0480 h1         1 B59       0.063367
     19 H16A         4.0350    -1.6500    -0.9590 h1         1 B59       0.063367
     20 H16B         4.0710    -1.6440     0.8150 h1         1 B59       0.063367
     21 H14          1.2910     3.1610     0.9070 h1         1 B59       0.069367
     22 H14A         2.7720     2.8830    -0.0050 h1         1 B59       0.069367
     23 H14B         1.2740     3.1830    -0.8810 h1         1 B59       0.069367
     24 H11         -4.5270    -0.0260     0.0280 h4         1 B59       0.020200
     25 HN10        -0.6880     2.6570     0.0190 hn         1 B59       0.337500
@<TRIPOS>BOND
     1     1     2 2   
     2     2     3 1   
     3     2     5 1   
     4     3     4 1   
     5     3     9 1   
     6     4    18 1   
     7     4    19 1   
     8     4    20 1   
     9     5     6 2   
    10     5    11 1   
    11     6     7 1   
    12     6    17 1   
    13     7     8 1   
    14     7     9 1   
    15     8    21 1   
    16     8    22 1   
    17     8    23 1   
    18     9    10 2   
    19    11    12 2   
    20    12    13 1   
    21    12    15 1   
    22    13    14 2   
    23    13    24 1   
    24    15    16 2   
    25    15    17 1   
    26    17    25 1   
@<TRIPOS>SUBSTRUCTURE
     1 B59         1 TEMP              0 ****  ****    0 ROOT
