@<TRIPOS>MOLECULE
B59
   25    26     1     0     0
SMALL
No Charge or Current Charge


@<TRIPOS>ATOM
      1 O17          0.9030    -2.7370    -0.0830 o          1 B59      -0.468000
      2 C1           1.0680    -1.5230    -0.0500 c          1 B59       0.617200
      3 N2           2.3480    -0.9590    -0.0440 n          1 B59      -0.373400
      4 C16          3.5230    -1.8780    -0.0780 c3         1 B59       0.084300
      5 C6          -0.0720    -0.5680    -0.0210 cc         1 B59      -0.149600
      6 C5           0.1770     0.8020     0.0090 cd         1 B59       0.263200
      7 N4           1.4800     1.2820     0.0160 n          1 B59      -0.318000
      8 C14          1.7240     2.7530     0.0560 c3         1 B59       0.064300
      9 C3           2.5900     0.4160    -0.0380 c          1 B59       0.627000
     10 O15          3.7330     0.8500    -0.0790 o          1 B59      -0.524000
     11 N7          -1.3730    -1.0850    -0.0280 nc         1 B59      -0.366300
     12 C8          -2.3990    -0.2160    -0.0070 cd         1 B59       0.179300
     13 C11         -3.7990    -0.7230    -0.0120 c          1 B59       0.510600
     14 O12         -4.1200    -1.9110    -0.0350 o          1 B59      -0.478100
     15 C9          -2.2180     1.2570     0.0220 c          1 B59       0.465700
     16 O13         -3.1170     2.0850     0.0400 o          1 B59      -0.508000
     17 N10         -0.9090     1.6450     0.0260 ns         1 B59      -0.384100
     18 H16          3.2860    -2.8460     0.3800 h1         1 B59       0.063367
     19 H16A         3.8310    -2.0420    -1.1190 h1         1 B59       0.063367
     20 H16B         4.3680    -1.4540     0.4800 h1         1 B59       0.063367
     21 H14          1.1310     3.2090     0.8600 h1         1 B59       0.069367
     22 H14A         2.7760     2.9960     0.2490 h1         1 B59       0.069367
     23 H14B         1.4350     3.2010    -0.9030 h1         1 B59       0.069367
     24 H11         -4.5900     0.0570     0.0060 h4         1 B59       0.020200
     25 HN10        -0.7670     2.6460     0.0400 hn         1 B59       0.337500
@<TRIPOS>BOND
     1     1     2 2   
     2     2     3 1   
     3     2     5 1   
     4     3     4 1   
     5     3     9 1   
     6     4    18 1   
     7     4    19 1   
     8     4    20 1   
     9     5     6 2   
    10     5    11 1   
    11     6     7 1   
    12     6    17 1   
    13     7     8 1   
    14     7     9 1   
    15     8    21 1   
    16     8    22 1   
    17     8    23 1   
    18     9    10 2   
    19    11    12 2   
    20    12    13 1   
    21    12    15 1   
    22    13    14 2   
    23    13    24 1   
    24    15    16 2   
    25    15    17 1   
    26    17    25 1   
@<TRIPOS>SUBSTRUCTURE
     1 B59         1 TEMP              0 ****  ****    0 ROOT
