@<TRIPOS>MOLECULE
B5A
   33    35     1     0     0
SMALL
abcg2


@<TRIPOS>ATOM
      1 CAF          2.3370     1.0350     0.3780 c6         1 B5A      -0.071400
      2 CAD          3.4130     0.8890     1.4450 c6         1 B5A       0.160300
      3 NAL          4.5960     0.2680     0.8790 n7         1 B5A      -0.862400
      4 CAE          4.3100    -1.0690     0.3890 c6         1 B5A       0.160300
      5 CAG          3.2760    -1.0020    -0.7250 c6         1 B5A      -0.071400
      6 CAP          1.9970    -0.3190    -0.2400 c6         1 B5A      -0.083700
      7 CAH          1.0050    -0.2070    -1.3940 c3         1 B5A       0.100600
      8 NAQ         -0.2720     0.3470    -1.0020 na         1 B5A      -0.021100
      9 NAK         -0.5430     1.6570    -1.1430 nc         1 B5A      -0.521100
     10 CAC         -1.7320     1.8640    -0.6370 cd         1 B5A       0.384800
     11 C5          -2.2710     0.6550    -0.1380 ca         1 B5A      -0.399900
     12 C4          -1.2850    -0.2980    -0.3950 ca         1 B5A       0.156500
     13 N3          -1.3520    -1.6000    -0.0970 nb         1 B5A      -0.230000
     14 C2          -2.4900    -1.9140     0.4880 ca         1 B5A       0.194900
     15 N1          -3.5160    -1.1210     0.7990 nb         1 B5A      -0.312000
     16 C6          -3.4380     0.1780     0.4980 ca         1 B5A       0.459900
     17 NAA         -4.4650     0.9670     0.8090 nv         1 B5A      -1.071900
     18 H1           1.4520     1.4980     0.8210 hc         1 B5A       0.050450
     19 H2           2.6960     1.7110    -0.4060 hc         1 B5A       0.050450
     20 H3           3.6830     1.8720     1.8380 h1         1 B5A       0.029200
     21 H4           2.9990     0.3120     2.2890 h1         1 B5A       0.029200
     22 H5           5.3220     0.2210     1.5810 hn         1 B5A       0.409000
     23 H7           5.2330    -1.5160     0.0150 h1         1 B5A       0.029200
     24 H8           3.9300    -1.7340     1.1830 h1         1 B5A       0.029200
     25 H9           3.6900    -0.4410    -1.5700 hc         1 B5A       0.050450
     26 H10          3.0560    -2.0110    -1.0840 hc         1 B5A       0.050450
     27 H11          1.5470    -0.9540     0.5340 hc         1 B5A       0.062700
     28 H12          1.4030     0.4330    -2.1830 h1         1 B5A       0.071200
     29 H13          0.8240    -1.1910    -1.8300 h1         1 B5A       0.071200
     30 H14         -2.1630     2.8540    -0.6450 h4         1 B5A       0.045800
     31 H15         -2.6170    -2.9580     0.7570 h5         1 B5A       0.045100
     32 H16         -4.4520     1.9540     0.6210 hn         1 B5A       0.502000
     33 H17         -5.2670     0.5870     1.2810 hn         1 B5A       0.502000
@<TRIPOS>BOND
     1     1     2 1   
     2     1     6 1   
     3     1    18 1   
     4     1    19 1   
     5     2     3 1   
     6     2    20 1   
     7     2    21 1   
     8     3     4 1   
     9     3    22 1   
    10     4     5 1   
    11     4    23 1   
    12     4    24 1   
    13     5     6 1   
    14     5    25 1   
    15     5    26 1   
    16     6     7 1   
    17     6    27 1   
    18     7     8 1   
    19     7    28 1   
    20     7    29 1   
    21     8     9 1   
    22     8    12 1   
    23     9    10 2   
    24    10    11 1   
    25    10    30 1   
    26    11    12 ar  
    27    11    16 ar  
    28    12    13 ar  
    29    13    14 ar  
    30    14    15 ar  
    31    14    31 1   
    32    15    16 ar  
    33    16    17 1   
    34    17    32 1   
    35    17    33 1   
@<TRIPOS>SUBSTRUCTURE
     1 B5A         1 TEMP              0 ****  ****    0 ROOT
