@<TRIPOS>MOLECULE
B5A
   33    35     1     0     0
SMALL
No Charge or Current Charge


@<TRIPOS>ATOM
      1 CAF          2.3770     1.0460     0.4170 c6         1 B5A      -0.071400
      2 CAD          3.4340     0.8340     1.5280 c6         1 B5A       0.160300
      3 NAL          4.6520     0.1760     0.9970 n7         1 B5A      -0.862400
      4 CAE          4.3630    -1.1270     0.3530 c6         1 B5A       0.160300
      5 CAG          3.3340    -0.9710    -0.7940 c6         1 B5A      -0.071400
      6 CAP          2.0290    -0.2930    -0.2940 c6         1 B5A      -0.083700
      7 CAH          1.0070    -0.1050    -1.4560 c3         1 B5A       0.100600
      8 NAQ         -0.3040     0.4410    -1.0560 na         1 B5A      -0.021100
      9 NAK         -0.7160     1.7500    -1.3310 nc         1 B5A      -0.521100
     10 CAC         -1.9450     1.8250    -0.8000 cd         1 B5A       0.384800
     11 C5          -2.3130     0.5740    -0.1950 ca         1 B5A      -0.399900
     12 C4          -1.2700    -0.2820    -0.3720 ca         1 B5A       0.156500
     13 N3          -1.3210    -1.5510     0.0800 nb         1 B5A      -0.230000
     14 C2          -2.4700    -1.8970     0.7140 ca         1 B5A       0.194900
     15 N1          -3.5490    -1.1010     0.9270 nb         1 B5A      -0.312000
     16 C6          -3.4570     0.1510     0.4600 ca         1 B5A       0.459900
     17 NAA         -4.5230     0.9540     0.6660 nv         1 B5A      -1.071900
     18 H1           1.4740     1.4900     0.8580 hc         1 B5A       0.050450
     19 H2           2.7560     1.7720    -0.3150 hc         1 B5A       0.050450
     20 H3           3.7050     1.8050     1.9690 h1         1 B5A       0.029200
     21 H4           3.0040     0.2140     2.3290 h1         1 B5A       0.029200
     22 H5           5.3100     0.0230     1.7730 hn         1 B5A       0.409000
     23 H7           5.2950    -1.5560    -0.0430 h1         1 B5A       0.029200
     24 H8           3.9680    -1.8270     1.1060 h1         1 B5A       0.029200
     25 H9           3.7800    -0.3770    -1.6040 hc         1 B5A       0.050450
     26 H10          3.1090    -1.9590    -1.2190 hc         1 B5A       0.050450
     27 H11          1.5530    -0.9620     0.4370 hc         1 B5A       0.062700
     28 H12          1.4460     0.5600    -2.2100 h1         1 B5A       0.071200
     29 H13          0.8360    -1.0770    -1.9350 h1         1 B5A       0.071200
     30 H14         -2.4990     2.7530    -0.8770 h4         1 B5A       0.045800
     31 H15         -2.5320    -2.9170     1.0880 h5         1 B5A       0.045100
     32 H16         -4.3940     1.9590     0.5910 hn         1 B5A       0.502000
     33 H17         -5.2310     0.6410     1.3240 hn         1 B5A       0.502000
@<TRIPOS>BOND
     1     1     2 1   
     2     1     6 1   
     3     1    18 1   
     4     1    19 1   
     5     2     3 1   
     6     2    20 1   
     7     2    21 1   
     8     3     4 1   
     9     3    22 1   
    10     4     5 1   
    11     4    23 1   
    12     4    24 1   
    13     5     6 1   
    14     5    25 1   
    15     5    26 1   
    16     6     7 1   
    17     6    27 1   
    18     7     8 1   
    19     7    28 1   
    20     7    29 1   
    21     8     9 1   
    22     8    12 1   
    23     9    10 2   
    24    10    11 1   
    25    10    30 1   
    26    11    12 ar  
    27    11    16 ar  
    28    12    13 ar  
    29    13    14 ar  
    30    14    15 ar  
    31    14    31 1   
    32    15    16 ar  
    33    16    17 1   
    34    17    32 1   
    35    17    33 1   
@<TRIPOS>SUBSTRUCTURE
     1 B5A         1 TEMP              0 ****  ****    0 ROOT
