@<TRIPOS>MOLECULE
B5B
   47    49     1     0     0
SMALL
abcg2


@<TRIPOS>ATOM
      1 C10          1.4170     0.1300    -1.6230 c3         1 B5B       0.073600
      2 C15          6.1580    -1.2860     1.3670 cc         1 B5B       0.233900
      3 C17          5.2390     0.6150     1.1240 cd         1 B5B       0.387400
      4 C20         -5.5140    -1.4440     0.2090 ca         1 B5B      -0.116000
      5 C21         -5.6870    -0.8150     1.4360 ca         1 B5B      -0.110000
      6 C22         -4.6070    -0.1730     2.0260 ca         1 B5B      -0.116000
      7 C01         -1.3960     3.7160     0.7660 c3         1 B5B      -0.088100
      8 C02         -1.5890     2.5000    -0.1320 c3         1 B5B      -0.062700
      9 C03         -1.3850     2.8620    -1.5980 c3         1 B5B      -0.088100
     10 C04         -0.6340     1.3760     0.2980 c3         1 B5B      -0.000100
     11 C05         -0.8320     0.1020    -0.4580 cc         1 B5B      -0.170300
     12 C06         -1.8970    -0.7740    -0.5410 cd         1 B5B       0.298500
     13 N07         -1.6270    -1.7490    -1.4660 nd         1 B5B      -0.664000
     14 C08         -0.4390    -1.4840    -1.9270 cc         1 B5B       0.392400
     15 N09          0.0850    -0.3750    -1.3610 na         1 B5B      -0.170500
     16 C11          2.4100    -0.2780    -0.5440 c3         1 B5B      -0.123400
     17 C12          3.8070     0.2240    -0.8830 c3         1 B5B       0.074600
     18 N13          4.7830    -0.1570     0.1160 na         1 B5B      -0.171500
     19 C14          5.3610    -1.3860     0.2630 cd         1 B5B      -0.234000
     20 N16          6.0740    -0.0300     1.8980 nc         1 B5B      -0.668000
     21 C18         -3.1860    -0.7690     0.1560 ca         1 B5B      -0.100500
     22 C19         -4.2800    -1.4220    -0.4210 ca         1 B5B      -0.096000
     23 C23         -3.3710    -0.1530     1.3960 ca         1 B5B      -0.096000
     24 H1           1.7270    -0.2660    -2.5910 h1         1 B5B       0.061200
     25 H2           1.3770     1.2140    -1.7300 h1         1 B5B       0.061200
     26 H3           6.7880    -2.0490     1.7980 h4         1 B5B       0.040100
     27 H4           4.9310     1.6440     1.2400 h5         1 B5B       0.052100
     28 H5          -6.3450    -1.9530    -0.2610 ha         1 B5B       0.110000
     29 H6          -6.6520    -0.8270     1.9270 ha         1 B5B       0.110000
     30 H7          -4.7230     0.3110     2.9880 ha         1 B5B       0.110000
     31 H8          -0.3770     4.1040     0.6880 hc         1 B5B       0.033700
     32 H9          -2.0770     4.5220     0.4880 hc         1 B5B       0.033700
     33 H10         -1.5790     3.4720     1.8140 hc         1 B5B       0.033700
     34 H11         -2.6170     2.1450    -0.0060 hc         1 B5B       0.065700
     35 H12         -1.5730     2.0120    -2.2560 hc         1 B5B       0.033700
     36 H13         -2.0570     3.6660    -1.9000 hc         1 B5B       0.033700
     37 H14         -0.3610     3.2020    -1.7770 hc         1 B5B       0.033700
     38 H15          0.3910     1.7330     0.1680 hc         1 B5B       0.047700
     39 H16         -0.7360     1.1970     1.3710 hc         1 B5B       0.047700
     40 H17          0.0990    -2.0550    -2.6700 h5         1 B5B       0.053100
     41 H18          2.1030     0.1240     0.4250 hc         1 B5B       0.070200
     42 H19          2.4170    -1.3670    -0.4540 hc         1 B5B       0.070200
     43 H20          4.1320    -0.1660    -1.8490 h1         1 B5B       0.060200
     44 H21          3.8160     1.3120    -0.9580 h1         1 B5B       0.060200
     45 H22          5.1660    -2.1990    -0.4170 h4         1 B5B       0.156000
     46 H23         -4.1570    -1.9150    -1.3760 ha         1 B5B       0.118500
     47 H24         -2.5430     0.3320     1.8940 ha         1 B5B       0.118500
@<TRIPOS>BOND
     1     1    15 1   
     2     1    16 1   
     3     1    24 1   
     4     1    25 1   
     5     2    19 2   
     6     2    20 1   
     7     2    26 1   
     8     3    18 1   
     9     3    20 2   
    10     3    27 1   
    11     4     5 ar  
    12     4    22 ar  
    13     4    28 1   
    14     5     6 ar  
    15     5    29 1   
    16     6    23 ar  
    17     6    30 1   
    18     7     8 1   
    19     7    31 1   
    20     7    32 1   
    21     7    33 1   
    22     8     9 1   
    23     8    10 1   
    24     8    34 1   
    25     9    35 1   
    26     9    36 1   
    27     9    37 1   
    28    10    11 1   
    29    10    38 1   
    30    10    39 1   
    31    11    12 2   
    32    11    15 1   
    33    12    13 1   
    34    12    21 1   
    35    13    14 2   
    36    14    15 1   
    37    14    40 1   
    38    16    17 1   
    39    16    41 1   
    40    16    42 1   
    41    17    18 1   
    42    17    43 1   
    43    17    44 1   
    44    18    19 1   
    45    19    45 1   
    46    21    22 ar  
    47    21    23 ar  
    48    22    46 1   
    49    23    47 1   
@<TRIPOS>SUBSTRUCTURE
     1 B5B         1 TEMP              0 ****  ****    0 ROOT
