@<TRIPOS>MOLECULE
B5B
   47    49     1     0     0
SMALL
No Charge or Current Charge


@<TRIPOS>ATOM
      1 C10          1.3690     0.1550    -1.5970 c3         1 B5B       0.073600
      2 C15          6.3740    -1.3490     1.1240 cc         1 B5B       0.233900
      3 C17          5.2550     0.4880     1.2280 cd         1 B5B       0.387400
      4 C20         -5.5240    -1.8670     0.4700 ca         1 B5B      -0.116000
      5 C21         -5.8780    -0.9190     1.4370 ca         1 B5B      -0.110000
      6 C22         -4.9690     0.0900     1.7780 ca         1 B5B      -0.116000
      7 C01         -1.4470     3.7890     0.8230 c3         1 B5B      -0.088100
      8 C02         -1.4860     2.6100    -0.1760 c3         1 B5B      -0.062700
      9 C03         -0.9760     3.0470    -1.5690 c3         1 B5B      -0.088100
     10 C04         -0.7170     1.3780     0.3760 c3         1 B5B      -0.000100
     11 C05         -0.9260     0.1130    -0.4370 cc         1 B5B      -0.170300
     12 C06         -1.9990    -0.7710    -0.5290 cd         1 B5B       0.298500
     13 N07         -1.6970    -1.7770    -1.4320 nd         1 B5B      -0.664000
     14 C08         -0.4850    -1.5280    -1.8840 cc         1 B5B       0.392400
     15 N09          0.0300    -0.3910    -1.3100 na         1 B5B      -0.170500
     16 C11          2.4360    -0.3230    -0.5920 c3         1 B5B      -0.123400
     17 C12          3.8300     0.2720    -0.8740 c3         1 B5B       0.074600
     18 N13          4.8450    -0.1850     0.0860 na         1 B5B      -0.171500
     19 C14          5.5650    -1.3650     0.0220 cd         1 B5B      -0.234000
     20 N16          6.1860    -0.2150     1.8640 nc         1 B5B      -0.668000
     21 C18         -3.3270    -0.7880     0.1670 ca         1 B5B      -0.100500
     22 C19         -4.2660    -1.8040    -0.1550 ca         1 B5B      -0.096000
     23 C23         -3.7100     0.1550     1.1540 ca         1 B5B      -0.096000
     24 H1           1.6630    -0.1540    -2.6090 h1         1 B5B       0.061200
     25 H2           1.3210     1.2510    -1.5950 h1         1 B5B       0.061200
     26 H3           7.0920    -2.0960     1.4390 h4         1 B5B       0.040100
     27 H4           4.8450     1.4480     1.5200 h5         1 B5B       0.052100
     28 H5          -6.2240    -2.6550     0.2010 ha         1 B5B       0.110000
     29 H6          -6.8510    -0.9670     1.9220 ha         1 B5B       0.110000
     30 H7          -5.2370     0.8280     2.5310 ha         1 B5B       0.110000
     31 H8          -0.4170     4.1270     0.9890 hc         1 B5B       0.033700
     32 H9          -2.0300     4.6380     0.4440 hc         1 B5B       0.033700
     33 H10         -1.8720     3.4930     1.7900 hc         1 B5B       0.033700
     34 H11         -2.5380     2.3280    -0.3000 hc         1 B5B       0.065700
     35 H12         -1.0700     2.2300    -2.2950 hc         1 B5B       0.033700
     36 H13         -1.5600     3.8950    -1.9450 hc         1 B5B       0.033700
     37 H14          0.0770     3.3500    -1.5240 hc         1 B5B       0.033700
     38 H15          0.3460     1.6370     0.4210 hc         1 B5B       0.047700
     39 H16         -0.9770     1.1920     1.4230 hc         1 B5B       0.047700
     40 H17          0.0670    -2.1170    -2.6070 h5         1 B5B       0.053100
     41 H18          2.1280    -0.0500     0.4250 hc         1 B5B       0.070200
     42 H19          2.4980    -1.4180    -0.6240 hc         1 B5B       0.070200
     43 H20          4.1520    -0.0120    -1.8850 h1         1 B5B       0.060200
     44 H21          3.7750     1.3680    -0.8350 h1         1 B5B       0.060200
     45 H22          5.4560    -2.1000    -0.7670 h4         1 B5B       0.156000
     46 H23         -4.0340    -2.5600    -0.9010 ha         1 B5B       0.118500
     47 H24         -3.0550     0.9530     1.4650 ha         1 B5B       0.118500
@<TRIPOS>BOND
     1     1    15 1   
     2     1    16 1   
     3     1    24 1   
     4     1    25 1   
     5     2    19 2   
     6     2    20 1   
     7     2    26 1   
     8     3    18 1   
     9     3    20 2   
    10     3    27 1   
    11     4     5 ar  
    12     4    22 ar  
    13     4    28 1   
    14     5     6 ar  
    15     5    29 1   
    16     6    23 ar  
    17     6    30 1   
    18     7     8 1   
    19     7    31 1   
    20     7    32 1   
    21     7    33 1   
    22     8     9 1   
    23     8    10 1   
    24     8    34 1   
    25     9    35 1   
    26     9    36 1   
    27     9    37 1   
    28    10    11 1   
    29    10    38 1   
    30    10    39 1   
    31    11    12 2   
    32    11    15 1   
    33    12    13 1   
    34    12    21 1   
    35    13    14 2   
    36    14    15 1   
    37    14    40 1   
    38    16    17 1   
    39    16    41 1   
    40    16    42 1   
    41    17    18 1   
    42    17    43 1   
    43    17    44 1   
    44    18    19 1   
    45    19    45 1   
    46    21    22 ar  
    47    21    23 ar  
    48    22    46 1   
    49    23    47 1   
@<TRIPOS>SUBSTRUCTURE
     1 B5B         1 TEMP              0 ****  ****    0 ROOT
