@<TRIPOS>MOLECULE
B5C
   20    21     1     0     0
SMALL
No Charge or Current Charge


@<TRIPOS>ATOM
      1 C10         -3.2990    -0.0920    -0.0180 c          1 B5C       0.672700
      2 C13         -0.7870    -0.2870     0.1270 ca         1 B5C      -0.180000
      3 C01          5.0220    -0.6170     0.0450 c3         1 B5C      -0.156100
      4 C02          3.5540    -0.6220    -0.3540 c          1 B5C       0.594100
      5 C05          1.4890     0.5370     0.2070 ca         1 B5C       0.096100
      6 C06          0.9990     1.8600     0.1310 ca         1 B5C      -0.083000
      7 C07         -0.3870     2.1060     0.0390 ca         1 B5C      -0.081000
      8 C08         -1.2590     1.0100     0.0370 ca         1 B5C       0.096100
      9 C14          0.5880    -0.5550     0.2190 ca         1 B5C      -0.045000
     10 O03          3.1020    -1.3140    -1.2560 o          1 B5C      -0.452000
     11 O04          2.8480     0.3440     0.3160 os         1 B5C      -0.363200
     12 O09         -2.6180     1.1010    -0.0410 os         1 B5C      -0.296200
     13 O11         -4.5170    -0.1960    -0.0780 o          1 B5C      -0.430000
     14 S12         -2.1040    -1.4790     0.1170 ss         1 B5C      -0.020600
     15 H1           5.6220    -1.3170    -0.5460 hc         1 B5C       0.075033
     16 H2           5.4050     0.4070    -0.0280 hc         1 B5C       0.075033
     17 H3           5.0970    -0.8160     1.1200 hc         1 B5C       0.075033
     18 H4           1.6970     2.6930     0.1390 ha         1 B5C       0.136000
     19 H5          -0.7720     3.1210    -0.0250 ha         1 B5C       0.145000
     20 H6           0.9450    -1.5780     0.3040 ha         1 B5C       0.144000
@<TRIPOS>BOND
     1     1    12 1   
     2     1    13 2   
     3     1    14 1   
     4     2     8 ar  
     5     2     9 ar  
     6     2    14 1   
     7     3     4 1   
     8     3    15 1   
     9     3    16 1   
    10     3    17 1   
    11     4    10 2   
    12     4    11 1   
    13     5     6 ar  
    14     5     9 ar  
    15     5    11 1   
    16     6     7 ar  
    17     6    18 1   
    18     7     8 ar  
    19     7    19 1   
    20     8    12 1   
    21     9    20 1   
@<TRIPOS>SUBSTRUCTURE
     1 B5C         1 TEMP              0 ****  ****    0 ROOT
