@<TRIPOS>MOLECULE
B5C
   20    21     1     0     0
SMALL
bcc


@<TRIPOS>ATOM
      1 C10         -3.2580    -0.0170    -0.0200 c          1 B5C       0.748200
      2 C13         -0.8130    -0.3560     0.3010 ca         1 B5C      -0.053100
      3 C01          4.9510    -0.5310     0.0150 c3         1 B5C      -0.156100
      4 C02          3.5420    -0.2990    -0.4220 c          1 B5C       0.643100
      5 C05          1.4420     0.3530     0.3710 ca         1 B5C       0.096100
      6 C06          1.0620     1.6460     0.0410 ca         1 B5C      -0.101000
      7 C07         -0.2760     1.9540    -0.1620 ca         1 B5C      -0.099000
      8 C08         -1.1950     0.9350    -0.0290 ca         1 B5C       0.096100
      9 C14          0.5180    -0.6720     0.5060 ca         1 B5C      -0.063000
     10 O03          3.1060    -0.4200    -1.5320 o          1 B5C      -0.501000
     11 O04          2.7700     0.0850     0.6210 os         1 B5C      -0.363200
     12 O09         -2.5350     1.1050    -0.2010 os         1 B5C      -0.296200
     13 O11         -4.4430    -0.0460    -0.1320 o          1 B5C      -0.505500
     14 S12         -2.2160    -1.3860     0.3940 ss         1 B5C      -0.147500
     15 H1           5.5500    -0.8890    -0.8160 hc         1 B5C       0.075033
     16 H2           5.3840     0.3970     0.3920 hc         1 B5C       0.075033
     17 H3           4.9850    -1.2580     0.8260 hc         1 B5C       0.075033
     18 H4           1.8100     2.4220    -0.0500 ha         1 B5C       0.154000
     19 H5          -0.5860     2.9580    -0.4170 ha         1 B5C       0.163000
     20 H6           0.8270    -1.6740     0.7690 ha         1 B5C       0.162000
@<TRIPOS>BOND
     1     1    12 1   
     2     1    13 2   
     3     1    14 1   
     4     2     8 ar  
     5     2     9 ar  
     6     2    14 1   
     7     3     4 1   
     8     3    15 1   
     9     3    16 1   
    10     3    17 1   
    11     4    10 2   
    12     4    11 1   
    13     5     6 ar  
    14     5     9 ar  
    15     5    11 1   
    16     6     7 ar  
    17     6    18 1   
    18     7     8 ar  
    19     7    19 1   
    20     8    12 1   
    21     9    20 1   
@<TRIPOS>SUBSTRUCTURE
     1 B5C         1 TEMP              0 ****  ****    0 ROOT
