@<TRIPOS>MOLECULE
B5D
   23    24     1     0     0
SMALL
abcg2


@<TRIPOS>ATOM
      1 C1           0.1810     1.2540     0.3080 ca         1 B5D       0.399000
      2 N1           2.6220    -0.2290     0.5280 n7         1 B5D      -0.849300
      3 O1           1.6170    -1.5710    -1.3680 o          1 B5D      -0.527500
      4 S1           1.3860    -1.1990     0.0160 sy         1 B5D       1.159600
      5 CL1         -3.9640    -0.5670    -0.0920 cl         1 B5D      -0.191000
      6 C2          -0.0030    -0.1230     0.0970 ca         1 B5D      -0.372500
      7 N2           1.4070     1.8190     0.4690 nu         1 B5D      -0.996200
      8 O2           1.2450    -2.2660     0.9930 o          1 B5D      -0.527500
      9 C3          -1.2690    -0.6900    -0.0230 ca         1 B5D       0.040000
     10 C4          -2.3800     0.1170     0.0580 ca         1 B5D       0.054000
     11 C5          -0.9820     2.0420     0.3910 ca         1 B5D      -0.194000
     12 C6          -2.2350     1.4870     0.2690 ca         1 B5D      -0.008000
     13 C7           2.8740     1.2660    -1.4470 c3         1 B5D      -0.126100
     14 C8           2.6230     1.1490     0.0500 c6         1 B5D       0.486700
     15 HN1          2.7200    -0.2850     1.5380 hn         1 B5D       0.490000
     16 HN2          1.4430     2.8250     0.4940 hn         1 B5D       0.499000
     17 H3          -1.3780    -1.7560    -0.1760 ha         1 B5D       0.142000
     18 H5          -0.8850     3.1080     0.5510 ha         1 B5D       0.118000
     19 H6          -3.1060     2.1250     0.3350 ha         1 B5D       0.130000
     20 H7           2.0360     0.9150    -2.0460 hc         1 B5D       0.064033
     21 H7A          3.0400     2.3150    -1.6890 hc         1 B5D       0.064033
     22 H7B          3.7650     0.7070    -1.7320 hc         1 B5D       0.064033
     23 H8           3.4480     1.6290     0.5750 h2         1 B5D       0.079700
@<TRIPOS>BOND
     1     1     6 ar  
     2     1     7 1   
     3     1    11 ar  
     4     2     4 1   
     5     2    14 1   
     6     2    15 1   
     7     3     4 2   
     8     4     6 1   
     9     4     8 2   
    10     5    10 1   
    11     6     9 ar  
    12     7    14 1   
    13     7    16 1   
    14     9    10 ar  
    15     9    17 1   
    16    10    12 ar  
    17    11    12 ar  
    18    11    18 1   
    19    12    19 1   
    20    13    14 1   
    21    13    20 1   
    22    13    21 1   
    23    13    22 1   
    24    14    23 1   
@<TRIPOS>SUBSTRUCTURE
     1 B5D         1 TEMP              0 ****  ****    0 ROOT
