@<TRIPOS>MOLECULE
B5D
   23    24     1     0     0
SMALL
No Charge or Current Charge


@<TRIPOS>ATOM
      1 C1           0.2360     1.1720     0.4420 ca         1 B5D       0.399000
      2 N1           2.7520    -0.2010     0.5120 n7         1 B5D      -0.849300
      3 O1           1.7180    -1.7760    -1.1700 o          1 B5D      -0.527500
      4 S1           1.4840    -1.2220     0.1660 sy         1 B5D       1.159600
      5 Cl1         -3.9290    -0.4510    -0.4850 cl         1 B5D      -0.191000
      6 C2           0.0670    -0.1690     0.1460 ca         1 B5D      -0.372500
      7 N2           1.5040     1.6450     0.6980 nu         1 B5D      -0.996200
      8 O2           1.3750    -2.1020     1.3310 o          1 B5D      -0.527500
      9 C3          -1.2120    -0.6840    -0.1440 ca         1 B5D       0.040000
     10 C4          -2.3240     0.1760    -0.1270 ca         1 B5D       0.054000
     11 C5          -0.8670     2.0340     0.4650 ca         1 B5D      -0.194000
     12 C6          -2.1530     1.5380     0.1800 ca         1 B5D      -0.008000
     13 C7           2.5830     1.2670    -1.5170 c3         1 B5D      -0.126100
     14 C8           2.6580     1.1380     0.0250 c6         1 B5D       0.486700
     15 HN1          2.5860    -0.0920     1.5050 hn         1 B5D       0.490000
     16 HN2          1.5350     2.6360     0.9360 hn         1 B5D       0.499000
     17 H3          -1.3490    -1.7390    -0.3750 ha         1 B5D       0.142000
     18 H5          -0.7330     3.0870     0.6970 ha         1 B5D       0.118000
     19 H6          -3.0120     2.2040     0.1940 ha         1 B5D       0.130000
     20 H7           1.6680     0.8460    -1.9440 hc         1 B5D       0.064033
     21 H7A          2.6190     2.3230    -1.8090 hc         1 B5D       0.064033
     22 H7B          3.4370     0.7680    -1.9880 hc         1 B5D       0.064033
     23 H8           3.5610     1.6760     0.3610 h2         1 B5D       0.079700
@<TRIPOS>BOND
     1     1     6 ar  
     2     1     7 1   
     3     1    11 ar  
     4     2     4 1   
     5     2    14 1   
     6     2    15 1   
     7     3     4 2   
     8     4     6 1   
     9     4     8 2   
    10     5    10 1   
    11     6     9 ar  
    12     7    14 1   
    13     7    16 1   
    14     9    10 ar  
    15     9    17 1   
    16    10    12 ar  
    17    11    12 ar  
    18    11    18 1   
    19    12    19 1   
    20    13    14 1   
    21    13    20 1   
    22    13    21 1   
    23    13    22 1   
    24    14    23 1   
@<TRIPOS>SUBSTRUCTURE
     1 B5D         1 TEMP              0 ****  ****    0 ROOT
