@<TRIPOS>MOLECULE
B5E
   55    58     1     0     0
SMALL
No Charge or Current Charge


@<TRIPOS>ATOM
      1 F2          -2.5340    -2.7500    -1.1440 f          1 B5E      -0.113333
      2 C24         -3.4290    -1.9340    -0.5410 c3         1 B5E       0.357300
      3 F           -4.2590    -1.5080    -1.5200 f          1 B5E      -0.113333
      4 F1          -4.1600    -2.7120     0.2870 f          1 B5E      -0.113333
      5 C23         -2.7580    -0.7750     0.2230 ca         1 B5E      -0.188300
      6 C8          -3.4790     0.3940     0.6170 cp         1 B5E       0.026000
      7 C7          -4.9340     0.5750     0.3310 cp         1 B5E      -0.058000
      8 C6          -5.8810    -0.1950     1.0490 ca         1 B5E      -0.088000
      9 C5          -7.2570    -0.0620     0.8100 ca         1 B5E      -0.112000
     10 C4          -7.7120     0.8500    -0.1530 ca         1 B5E      -0.098000
     11 C3          -6.7920     1.6300    -0.8710 ca         1 B5E      -0.114000
     12 C2          -5.4050     1.5080    -0.6390 ca         1 B5E      -0.047300
     13 C1          -4.4570     2.3900    -1.4550 c3         1 B5E      -0.035100
     14 C           -3.7780     1.6340    -2.6130 c3         1 B5E      -0.086100
     15 C22         -1.3860    -0.8790     0.5600 ca         1 B5E      -0.042000
     16 C11         -0.7240     0.1460     1.2610 ca         1 B5E      -0.094300
     17 C10         -1.4370     1.2930     1.6430 ca         1 B5E      -0.079000
     18 C9          -2.7970     1.4080     1.3280 ca         1 B5E      -0.114000
     19 C12          0.7510     0.0030     1.6090 c3         1 B5E       0.205100
     20 N            1.5840     0.2460     0.4180 n7         1 B5E      -0.864400
     21 C13          3.0400     0.1630     0.6430 c3         1 B5E       0.160800
     22 C14          3.7920     0.4010    -0.6770 c3         1 B5E      -0.093700
     23 C15          5.2790     0.2870    -0.5100 cc         1 B5E       0.415800
     24 N2           5.9900    -0.9010    -0.6610 na         1 B5E      -0.313600
     25 C21          7.2980    -0.6120    -0.4270 ca         1 B5E      -0.079200
     26 C16          7.3610     0.7220    -0.1420 ca         1 B5E       0.069400
     27 N1           6.0990     1.3080    -0.1890 nd         1 B5E      -0.581100
     28 C20          8.4250    -1.4430    -0.4480 ca         1 B5E      -0.115000
     29 C19          9.6730    -0.8510    -0.1590 ca         1 B5E      -0.093000
     30 C18          9.7550     0.5310     0.1380 ca         1 B5E      -0.135000
     31 C17          8.5910     1.3320     0.1480 ca         1 B5E      -0.050000
     32 H1          -5.5380    -0.9010     1.8010 ha         1 B5E       0.120000
     33 H2          -7.9690    -0.6650     1.3700 ha         1 B5E       0.116000
     34 H3          -8.7790     0.9540    -0.3420 ha         1 B5E       0.114000
     35 H4          -7.1610     2.3330    -1.6140 ha         1 B5E       0.112000
     36 H5          -5.0040     3.2430    -1.8760 hc         1 B5E       0.045700
     37 H6          -3.6850     2.8290    -0.8140 hc         1 B5E       0.045700
     38 H7          -4.5270     1.1700    -3.2640 hc         1 B5E       0.037367
     39 H8          -3.1760     2.3240    -3.2170 hc         1 B5E       0.037367
     40 H9          -3.1130     0.8510    -2.2320 hc         1 B5E       0.037367
     41 H10         -0.8150    -1.7610     0.2790 ha         1 B5E       0.137000
     42 H11         -0.9400     2.0920     2.1890 ha         1 B5E       0.117000
     43 H12         -3.3410     2.2960     1.6410 ha         1 B5E       0.125000
     44 H13          1.0050     0.7130     2.4080 h1         1 B5E       0.042200
     45 H14          0.9280    -1.0080     2.0020 h1         1 B5E       0.042200
     46 H15          1.3620     1.1860     0.0710 hn         1 B5E       0.409000
     47 H17          3.3620     0.9110     1.3810 h1         1 B5E       0.049200
     48 H18          3.3120    -0.8280     1.0330 h1         1 B5E       0.049200
     49 H19          3.4510    -0.3240    -1.4250 hc         1 B5E       0.061700
     50 H20          3.5430     1.3960    -1.0640 hc         1 B5E       0.061700
     51 H21          5.5960    -1.8010    -0.9010 hn         1 B5E       0.356000
     52 H23          8.3440    -2.5030    -0.6780 ha         1 B5E       0.117000
     53 H24         10.5750    -1.4600    -0.1650 ha         1 B5E       0.113000
     54 H25         10.7210     0.9800     0.3600 ha         1 B5E       0.114000
     55 H26          8.6430     2.3940     0.3750 ha         1 B5E       0.127000
@<TRIPOS>BOND
     1     1     2 1   
     2     2     3 1   
     3     2     4 1   
     4     2     5 1   
     5     5     6 ar  
     6     5    15 ar  
     7     6     7 1   
     8     6    18 ar  
     9     7     8 ar  
    10     7    12 ar  
    11     8     9 ar  
    12     8    32 1   
    13     9    10 ar  
    14     9    33 1   
    15    10    11 ar  
    16    10    34 1   
    17    11    12 ar  
    18    11    35 1   
    19    12    13 1   
    20    13    14 1   
    21    13    36 1   
    22    13    37 1   
    23    14    38 1   
    24    14    39 1   
    25    14    40 1   
    26    15    16 ar  
    27    15    41 1   
    28    16    17 ar  
    29    16    19 1   
    30    17    18 ar  
    31    17    42 1   
    32    18    43 1   
    33    19    20 1   
    34    19    44 1   
    35    19    45 1   
    36    20    21 1   
    37    20    46 1   
    38    21    22 1   
    39    21    47 1   
    40    21    48 1   
    41    22    23 1   
    42    22    49 1   
    43    22    50 1   
    44    23    24 1   
    45    23    27 2   
    46    24    25 1   
    47    24    51 1   
    48    25    26 ar  
    49    25    28 ar  
    50    26    27 1   
    51    26    31 ar  
    52    28    29 ar  
    53    28    52 1   
    54    29    30 ar  
    55    29    53 1   
    56    30    31 ar  
    57    30    54 1   
    58    31    55 1   
@<TRIPOS>SUBSTRUCTURE
     1 B5E         1 TEMP              0 ****  ****    0 ROOT
