@<TRIPOS>MOLECULE
B5E
   55    58     1     0     0
SMALL
bcc


@<TRIPOS>ATOM
      1 F2          -2.4100    -2.8120    -0.6690 f          1 B5E      -0.234633
      2 C24         -3.3120    -1.9370    -0.2060 c3         1 B5E       0.721200
      3 F           -4.1330    -1.6630    -1.2250 f          1 B5E      -0.234633
      4 F1          -4.0420    -2.5950     0.7090 f          1 B5E      -0.234633
      5 C23         -2.6660    -0.7130     0.3760 ca         1 B5E      -0.188300
      6 C8          -3.4070     0.4510     0.6210 cp         1 B5E       0.026000
      7 C7          -4.8560     0.5900     0.3160 cp         1 B5E      -0.058000
      8 C6          -5.7800    -0.0260     1.1590 ca         1 B5E      -0.106000
      9 C5          -7.1430     0.1080     0.9470 ca         1 B5E      -0.130000
     10 C4          -7.5960     0.8680    -0.1220 ca         1 B5E      -0.116000
     11 C3          -6.6810     1.4950    -0.9530 ca         1 B5E      -0.132000
     12 C2          -5.3060     1.3770    -0.7520 ca         1 B5E      -0.047300
     13 C1          -4.3780     2.0770    -1.7110 c3         1 B5E      -0.035100
     14 C           -4.1440     1.2830    -2.9950 c3         1 B5E      -0.086100
     15 C22         -1.3200    -0.7730     0.7160 ca         1 B5E      -0.060000
     16 C11         -0.6790     0.3030     1.3190 ca         1 B5E      -0.094300
     17 C10         -1.4120     1.4550     1.5630 ca         1 B5E      -0.097000
     18 C9          -2.7530     1.5240     1.2170 ca         1 B5E      -0.132000
     19 C12          0.7850     0.2220     1.6480 c3         1 B5E       0.205100
     20 N            1.5800     0.3790     0.4420 n7         1 B5E      -0.809200
     21 C13          3.0010     0.2560     0.6960 c3         1 B5E       0.160800
     22 C14          3.7850     0.4450    -0.5980 c3         1 B5E      -0.093700
     23 C15          5.2510     0.2810    -0.3950 cc         1 B5E       0.415800
     24 N2           6.0140    -0.4640    -1.2370 na         1 B5E      -0.263300
     25 C21          7.3060    -0.4100    -0.7850 ca         1 B5E      -0.079200
     26 C16          7.2420     0.4020     0.3600 ca         1 B5E       0.069400
     27 N1           5.9470     0.8150     0.5720 nd         1 B5E      -0.581100
     28 C20          8.4920    -0.9740    -1.2390 ca         1 B5E      -0.133000
     29 C19          9.6330    -0.6970    -0.5050 ca         1 B5E      -0.111000
     30 C18          9.5890     0.1130     0.6400 ca         1 B5E      -0.153000
     31 C17          8.4030     0.6700     1.0850 ca         1 B5E      -0.068000
     32 H1          -5.4280    -0.6000     2.0060 ha         1 B5E       0.138000
     33 H2          -7.8440    -0.3740     1.6160 ha         1 B5E       0.134000
     34 H3          -8.6580     0.9820    -0.3020 ha         1 B5E       0.132000
     35 H4          -7.0390     2.0980    -1.7800 ha         1 B5E       0.130000
     36 H5          -4.8120     3.0470    -1.9680 hc         1 B5E       0.045700
     37 H6          -3.4180     2.2880    -1.2400 hc         1 B5E       0.045700
     38 H7          -5.0850     1.0650    -3.5020 hc         1 B5E       0.037367
     39 H8          -3.5140     1.8450    -3.6850 hc         1 B5E       0.037367
     40 H9          -3.6490     0.3350    -2.7900 hc         1 B5E       0.037367
     41 H10         -0.7460    -1.6690     0.5230 ha         1 B5E       0.155000
     42 H11         -0.9370     2.3080     2.0320 ha         1 B5E       0.135000
     43 H12         -3.3110     2.4300     1.4210 ha         1 B5E       0.143000
     44 H13          1.0280     0.9650     2.4220 h1         1 B5E       0.042200
     45 H14          1.0100    -0.7590     2.0760 h1         1 B5E       0.042200
     46 H15          1.3900     1.2940     0.0490 hn         1 B5E       0.353800
     47 H17          3.3680     0.9640     1.4520 h1         1 B5E       0.049200
     48 H18          3.1940    -0.7460     1.0900 h1         1 B5E       0.049200
     49 H19          3.4320    -0.2650    -1.3480 hc         1 B5E       0.061700
     50 H20          3.5940     1.4450    -0.9990 hc         1 B5E       0.061700
     51 H21          5.6820    -0.9630    -2.0460 hn         1 B5E       0.305700
     52 H23          8.5270    -1.5990    -2.1210 ha         1 B5E       0.135000
     53 H24         10.5800    -1.1150    -0.8200 ha         1 B5E       0.131000
     54 H25         10.5050     0.3030     1.1850 ha         1 B5E       0.132000
     55 H26          8.3730     1.2940     1.9690 ha         1 B5E       0.145000
@<TRIPOS>BOND
     1     1     2 1   
     2     2     3 1   
     3     2     4 1   
     4     2     5 1   
     5     5     6 ar  
     6     5    15 ar  
     7     6     7 1   
     8     6    18 ar  
     9     7     8 ar  
    10     7    12 ar  
    11     8     9 ar  
    12     8    32 1   
    13     9    10 ar  
    14     9    33 1   
    15    10    11 ar  
    16    10    34 1   
    17    11    12 ar  
    18    11    35 1   
    19    12    13 1   
    20    13    14 1   
    21    13    36 1   
    22    13    37 1   
    23    14    38 1   
    24    14    39 1   
    25    14    40 1   
    26    15    16 ar  
    27    15    41 1   
    28    16    17 ar  
    29    16    19 1   
    30    17    18 ar  
    31    17    42 1   
    32    18    43 1   
    33    19    20 1   
    34    19    44 1   
    35    19    45 1   
    36    20    21 1   
    37    20    46 1   
    38    21    22 1   
    39    21    47 1   
    40    21    48 1   
    41    22    23 1   
    42    22    49 1   
    43    22    50 1   
    44    23    24 1   
    45    23    27 2   
    46    24    25 1   
    47    24    51 1   
    48    25    26 ar  
    49    25    28 ar  
    50    26    27 1   
    51    26    31 ar  
    52    28    29 ar  
    53    28    52 1   
    54    29    30 ar  
    55    29    53 1   
    56    30    31 ar  
    57    30    54 1   
    58    31    55 1   
@<TRIPOS>SUBSTRUCTURE
     1 B5E         1 TEMP              0 ****  ****    0 ROOT
