@<TRIPOS>MOLECULE
B5F
   42    43     1     0     0
SMALL
No Charge or Current Charge


@<TRIPOS>ATOM
      1 C1           0.9850    -0.2200     0.1310 cp         1 B5F      -0.253000
      2 C2           1.7150    -1.4290     0.2170 ca         1 B5F       0.304100
      3 O2           0.9920    -2.5970     0.1610 os         1 B5F      -0.464500
      4 P2           1.5070    -4.1270     0.1990 p5         1 B5F       1.330400
      5 C3           3.1140    -1.4090     0.3380 ca         1 B5F      -0.370500
      6 C4           3.8120    -0.2000     0.3760 ca         1 B5F       0.260100
      7 O4           5.1770    -0.2810     0.4940 os         1 B5F      -0.538500
      8 P4           6.3040     0.8770     0.5570 p5         1 B5F       1.330900
      9 C5           3.1060     1.0100     0.2930 ca         1 B5F      -0.370500
     10 C6           1.7030     1.0020     0.1710 ca         1 B5F       0.304100
     11 O6           0.9490     2.1500     0.0990 os         1 B5F      -0.464500
     12 P6           1.3960     3.7010     0.1650 p5         1 B5F       1.330400
     13 C7          -0.5020    -0.2340     0.0010 cp         1 B5F       0.137000
     14 C8          -1.3230    -0.5680     1.0980 ca         1 B5F      -0.231000
     15 O21          2.4220    -4.4060    -0.9460 o          1 B5F      -0.958333
     16 O22          2.2140    -4.4170     1.4800 o          1 B5F      -0.958333
     17 O23          0.3340    -5.0410     0.0930 o          1 B5F      -0.958333
     18 C9          -2.7220    -0.5840     0.9870 ca         1 B5F       0.251600
     19 O3          -3.4310    -0.9160     2.1170 os         1 B5F      -0.524000
     20 P3          -5.0240    -1.0120     2.3630 p5         1 B5F       1.330400
     21 O31         -5.2650    -1.4020     3.7810 o          1 B5F      -0.959833
     22 O32         -5.6730     0.3080     2.1190 o          1 B5F      -0.959833
     23 O33         -5.6310    -2.0460     1.4780 o          1 B5F      -0.959833
     24 C10         -3.3260    -0.2670    -0.2470 ca         1 B5F      -0.303000
     25 O41          7.6410     0.2290     0.6780 o          1 B5F      -0.962167
     26 O42          6.2890     1.6970    -0.6870 o          1 B5F      -0.962167
     27 O43          6.0960     1.7510     1.7460 o          1 B5F      -0.962167
     28 C11         -2.5240     0.0670    -1.3570 ca         1 B5F       0.251600
     29 O5          -3.0330     0.3830    -2.5950 os         1 B5F      -0.524000
     30 P5          -4.5610     0.4350    -3.1160 p5         1 B5F       1.330400
     31 O51         -5.3410     1.4510    -2.3540 o          1 B5F      -0.959833
     32 O52         -4.5600     0.8220    -4.5550 o          1 B5F      -0.959833
     33 O53         -5.2060    -0.9020    -2.9850 o          1 B5F      -0.959833
     34 C12         -1.1270     0.0830    -1.2230 ca         1 B5F      -0.231000
     35 O61          2.3010     4.0430    -0.9700 o          1 B5F      -0.958333
     36 O62          0.1810     4.5610     0.0670 o          1 B5F      -0.958333
     37 O63          2.0750     4.0040     1.4580 o          1 B5F      -0.958333
     38 H3           3.6760    -2.3330     0.4020 ha         1 B5F       0.119000
     39 H5           3.6420     1.9500     0.3240 ha         1 B5F       0.119000
     40 H2          -0.8600    -0.8140     2.0490 ha         1 B5F       0.067000
     41 H4          -4.4040    -0.2800    -0.3410 ha         1 B5F       0.139000
     42 H6          -0.5110     0.3410    -2.0800 ha         1 B5F       0.067000
@<TRIPOS>BOND
     1     1     2 ar  
     2     1    10 ar  
     3     1    13 1   
     4     2     3 1   
     5     2     5 ar  
     6     3     4 1   
     7     4    15 1   
     8     4    16 1   
     9     4    17 1   
    10     5     6 ar  
    11     5    38 1   
    12     6     7 1   
    13     6     9 ar  
    14     7     8 1   
    15     8    25 1   
    16     8    26 1   
    17     8    27 1   
    18     9    10 ar  
    19     9    39 1   
    20    10    11 1   
    21    11    12 1   
    22    12    35 1   
    23    12    36 1   
    24    12    37 1   
    25    13    14 ar  
    26    13    34 ar  
    27    14    18 ar  
    28    14    40 1   
    29    18    19 1   
    30    18    24 ar  
    31    19    20 1   
    32    20    21 1   
    33    20    22 1   
    34    20    23 1   
    35    24    28 ar  
    36    24    41 1   
    37    28    29 1   
    38    28    34 ar  
    39    29    30 1   
    40    30    31 1   
    41    30    32 1   
    42    30    33 1   
    43    34    42 1   
@<TRIPOS>SUBSTRUCTURE
     1 B5F         1 TEMP              0 ****  ****    0 ROOT
