@<TRIPOS>MOLECULE
B5F
   42    43     1     0     0
SMALL
bcc


@<TRIPOS>ATOM
      1 C1           0.9870    -0.2470     0.1160 cp         1 B5F      -0.253000
      2 C2           1.7500    -1.4160    -0.0170 ca         1 B5F       0.304100
      3 O2           1.0950    -2.5360    -0.3450 os         1 B5F      -0.464500
      4 P2           1.6030    -4.1480     0.0440 p5         1 B5F       1.330400
      5 C3           3.1340    -1.3640     0.1620 ca         1 B5F      -0.388500
      6 C4           3.7570    -0.1570     0.4760 ca         1 B5F       0.260100
      7 O4           5.0850    -0.2060     0.6950 os         1 B5F      -0.538500
      8 P4           6.2210     0.9880     0.1480 p5         1 B5F       1.330900
      9 C5           3.0140     1.0190     0.5920 ca         1 B5F      -0.388500
     10 C6           1.6250     0.9700     0.4160 ca         1 B5F       0.304100
     11 O6           0.8270     2.0340     0.5290 os         1 B5F      -0.464500
     12 P6           1.3030     3.6760     0.8350 p5         1 B5F       1.330400
     13 C7          -0.4900    -0.3010    -0.0330 cp         1 B5F       0.137000
     14 C8          -1.3000    -0.3930     1.0900 ca         1 B5F      -0.249000
     15 O21          2.8760    -4.3820    -0.7610 o          1 B5F      -0.958333
     16 O22          1.7920    -4.1330     1.5510 o          1 B5F      -0.958333
     17 O23          0.3920    -4.9170    -0.4600 o          1 B5F      -0.958333
     18 C9          -2.6940    -0.4590     0.9730 ca         1 B5F       0.251600
     19 O3          -3.3760    -0.5770     2.1180 os         1 B5F      -0.524000
     20 P3          -5.1040    -0.5810     2.3210 p5         1 B5F       1.330400
     21 O31         -5.1580    -0.7620     3.8310 o          1 B5F      -0.959833
     22 O32         -5.5490     0.7810     1.8190 o          1 B5F      -0.959833
     23 O33         -5.5890    -1.7740     1.5150 o          1 B5F      -0.959833
     24 C10         -3.2840    -0.4150    -0.2950 ca         1 B5F      -0.321000
     25 O41          7.5110     0.2260     0.4120 o          1 B5F      -0.962167
     26 O42          5.8750     1.1890    -1.3180 o          1 B5F      -0.962167
     27 O43          6.0050     2.1960     1.0460 o          1 B5F      -0.962167
     28 C11         -2.4710    -0.3280    -1.4310 ca         1 B5F       0.251600
     29 O5          -2.9480    -0.3360    -2.6840 os         1 B5F      -0.524000
     30 P5          -4.5000     0.2690    -3.1870 p5         1 B5F       1.330400
     31 O51         -4.5440     1.6820    -2.6360 o          1 B5F      -0.959833
     32 O52         -4.3160     0.1610    -4.6930 o          1 B5F      -0.959833
     33 O53         -5.5160    -0.7000    -2.6020 o          1 B5F      -0.959833
     34 C12         -1.0810    -0.2640    -1.2900 ca         1 B5F      -0.249000
     35 O61          2.1450     4.0600    -0.3690 o          1 B5F      -0.958333
     36 O62         -0.0740     4.3190     0.8870 o          1 B5F      -0.958333
     37 O63          2.0360     3.6330     2.1670 o          1 B5F      -0.958333
     38 H3           3.7280    -2.2590     0.0360 ha         1 B5F       0.137000
     39 H5           3.5100     1.9460     0.8340 ha         1 B5F       0.137000
     40 H2          -0.8520    -0.4280     2.0770 ha         1 B5F       0.085000
     41 H4          -4.3550    -0.4910    -0.4070 ha         1 B5F       0.157000
     42 H6          -0.4610    -0.1940    -2.1770 ha         1 B5F       0.085000
@<TRIPOS>BOND
     1     1     2 ar  
     2     1    10 ar  
     3     1    13 1   
     4     2     3 1   
     5     2     5 ar  
     6     3     4 1   
     7     4    15 1   
     8     4    16 1   
     9     4    17 1   
    10     5     6 ar  
    11     5    38 1   
    12     6     7 1   
    13     6     9 ar  
    14     7     8 1   
    15     8    25 1   
    16     8    26 1   
    17     8    27 1   
    18     9    10 ar  
    19     9    39 1   
    20    10    11 1   
    21    11    12 1   
    22    12    35 1   
    23    12    36 1   
    24    12    37 1   
    25    13    14 ar  
    26    13    34 ar  
    27    14    18 ar  
    28    14    40 1   
    29    18    19 1   
    30    18    24 ar  
    31    19    20 1   
    32    20    21 1   
    33    20    22 1   
    34    20    23 1   
    35    24    28 ar  
    36    24    41 1   
    37    28    29 1   
    38    28    34 ar  
    39    29    30 1   
    40    30    31 1   
    41    30    32 1   
    42    30    33 1   
    43    34    42 1   
@<TRIPOS>SUBSTRUCTURE
     1 B5F         1 TEMP              0 ****  ****    0 ROOT
