@<TRIPOS>MOLECULE
B5G
   61    65     1     0     0
SMALL
bcc


@<TRIPOS>ATOM
      1 C4           8.4660    -1.7440    -0.6030 c6         1 B5G       0.165800
      2 C6           7.5750    -0.5980     1.3150 c6         1 B5G       0.252100
      3 C10          0.5070     1.5330    -1.9800 ca         1 B5G      -0.092000
      4 C20         -4.1720     0.5840     0.3220 c          1 B5G       0.799100
      5 C24          4.2320     0.0960    -0.5470 cc         1 B5G       0.538300
      6 C28         -5.9550    -1.0340    -0.2600 ca         1 B5G       0.088600
      7 C1           6.3510    -0.3890     0.4890 cc         1 B5G      -0.203700
      8 C2           6.2620    -0.6700    -0.8310 cd         1 B5G       0.386600
      9 C3           7.4170    -1.2330    -1.5860 c6         1 B5G      -0.099700
     10 N5           8.7210    -0.7650     0.4410 n3         1 B5G      -0.713600
     11 C9          -0.7480     1.9080    -2.4360 ca         1 B5G      -0.139000
     12 C11          0.7360     1.4020    -0.6130 ca         1 B5G      -0.147600
     13 C12         -0.3010     1.6640     0.2820 ca         1 B5G      -0.049000
     14 C27          9.9030    -1.0840     1.2100 c3         1 B5G       0.152100
     15 C7          -1.5550     2.0440    -0.1670 ca         1 B5G      -0.092300
     16 C8          -1.7720     2.1620    -1.5370 ca         1 B5G      -0.084000
     17 C13          2.0530     1.0170    -0.0430 c          1 B5G       0.688700
     18 O14          2.3330     1.1860     1.1320 o          1 B5G      -0.579100
     19 C15         -2.6330     2.3960     0.8250 c5         1 B5G       0.173000
     20 N16         -3.9550     1.9150     0.4410 n          1 B5G      -0.505800
     21 C17         -4.9800     2.9540     0.4980 c5         1 B5G       0.102000
     22 C18         -4.3120     4.0470     1.3230 c5         1 B5G      -0.094400
     23 C19         -2.8440     3.9120     0.9450 c5         1 B5G      -0.090400
     24 O21         -3.3060    -0.2450     0.5590 o          1 B5G      -0.609100
     25 N22         -5.4400     0.2470    -0.0980 ns         1 B5G      -0.490100
     26 N23          2.9510     0.4550    -0.8960 ns         1 B5G      -0.531400
     27 N25          5.0550    -0.3910    -1.4170 nd         1 B5G      -0.704000
     28 S26          4.8540     0.2540     1.0630 ss         1 B5G      -0.080300
     29 C29         -5.4590    -2.1610     0.3930 ca         1 B5G      -0.113000
     30 C30         -6.0830    -3.3910     0.1920 ca         1 B5G       0.011000
     31 C31         -7.1920    -3.5340    -0.6380 ca         1 B5G      -0.122000
     32 C32         -7.6790    -2.4040    -1.2750 ca         1 B5G      -0.102000
     33 C33         -7.0700    -1.1760    -1.0930 ca         1 B5G      -0.175000
     34 C34         -5.5670    -4.5360     0.8730 cg         1 B5G       0.233800
     35 N35         -5.1560    -5.4610     1.4230 n1         1 B5G      -0.360800
     36 H1           8.1380    -2.7100    -0.1830 h1         1 B5G       0.034700
     37 H2           9.4000    -1.9330    -1.1340 h1         1 B5G       0.034700
     38 H3           7.7530     0.2600     1.9700 h1         1 B5G       0.042700
     39 H4           7.4330    -1.4680     1.9810 h1         1 B5G       0.042700
     40 H5           1.2920     1.3730    -2.7080 ha         1 B5G       0.133000
     41 H6           7.8520    -0.4680    -2.2350 hc         1 B5G       0.063700
     42 H7           7.0910    -2.0490    -2.2350 hc         1 B5G       0.063700
     43 H9          -0.9240     2.0100    -3.4980 ha         1 B5G       0.137000
     44 H10         -0.1270     1.5610     1.3460 ha         1 B5G       0.157000
     45 H11         10.7750    -1.1220     0.5570 h1         1 B5G       0.031033
     46 H12         10.0790    -0.3080     1.9580 h1         1 B5G       0.031033
     47 H13          9.8340    -2.0470     1.7390 h1         1 B5G       0.031033
     48 H14         -2.7460     2.4560    -1.9090 ha         1 B5G       0.134000
     49 H15         -2.3570     1.9880     1.8030 h1         1 B5G       0.071700
     50 H16         -5.2350     3.3150    -0.5030 h1         1 B5G       0.045700
     51 H17         -5.8920     2.5900     0.9710 h1         1 B5G       0.045700
     52 H18         -4.7200     5.0330     1.1060 hc         1 B5G       0.059700
     53 H19         -4.4540     3.8480     2.3870 hc         1 B5G       0.059700
     54 H20         -2.1640     4.3500     1.6730 hc         1 B5G       0.061200
     55 H21         -2.6560     4.3960    -0.0170 hc         1 B5G       0.061200
     56 H22         -6.0140     0.9800    -0.4850 hn         1 B5G       0.316500
     57 H23          2.7020     0.2520    -1.8530 hn         1 B5G       0.343500
     58 H24         -4.6120    -2.0970     1.0560 ha         1 B5G       0.175000
     59 H25         -7.6580    -4.4990    -0.7760 ha         1 B5G       0.146000
     60 H26         -8.5410    -2.4790    -1.9240 ha         1 B5G       0.137000
     61 H27         -7.4630    -0.3060    -1.6060 ha         1 B5G       0.128000
@<TRIPOS>BOND
     1     1     9 1   
     2     1    10 1   
     3     1    36 1   
     4     1    37 1   
     5     2     7 1   
     6     2    10 1   
     7     2    38 1   
     8     2    39 1   
     9     3    11 ar  
    10     3    12 ar  
    11     3    40 1   
    12     4    20 1   
    13     4    24 2   
    14     4    25 1   
    15     5    26 1   
    16     5    27 2   
    17     5    28 1   
    18     6    25 1   
    19     6    29 ar  
    20     6    33 ar  
    21     7     8 2   
    22     7    28 1   
    23     8     9 1   
    24     8    27 1   
    25     9    41 1   
    26     9    42 1   
    27    10    14 1   
    28    11    16 ar  
    29    11    43 1   
    30    12    13 ar  
    31    12    17 1   
    32    13    15 ar  
    33    13    44 1   
    34    14    45 1   
    35    14    46 1   
    36    14    47 1   
    37    15    16 ar  
    38    15    19 1   
    39    16    48 1   
    40    17    18 2   
    41    17    26 1   
    42    19    20 1   
    43    19    23 1   
    44    19    49 1   
    45    20    21 1   
    46    21    22 1   
    47    21    50 1   
    48    21    51 1   
    49    22    23 1   
    50    22    52 1   
    51    22    53 1   
    52    23    54 1   
    53    23    55 1   
    54    25    56 1   
    55    26    57 1   
    56    29    30 ar  
    57    29    58 1   
    58    30    31 ar  
    59    30    34 1   
    60    31    32 ar  
    61    31    59 1   
    62    32    33 ar  
    63    32    60 1   
    64    33    61 1   
    65    34    35 3   
@<TRIPOS>SUBSTRUCTURE
     1 B5G         1 TEMP              0 ****  ****    0 ROOT
