@<TRIPOS>MOLECULE
B5G
   61    65     1     0     0
SMALL
No Charge or Current Charge


@<TRIPOS>ATOM
      1 C4           8.5620    -1.6860    -0.7870 c6         1 B5G       0.165800
      2 C6           7.7410    -0.8300     1.3680 c6         1 B5G       0.252100
      3 C10          0.5050     1.2890    -1.7020 ca         1 B5G      -0.074000
      4 C20         -4.1970     0.6190     0.4870 c          1 B5G       0.665100
      5 C24          4.2940     0.1750    -0.1760 cc         1 B5G       0.538300
      6 C28         -6.0080    -1.0920    -0.1550 ca         1 B5G      -0.004000
      7 C1           6.4750    -0.4570     0.6480 cc         1 B5G      -0.283300
      8 C2           6.3080    -0.5720    -0.7090 cd         1 B5G       0.321300
      9 C3           7.4220    -1.0420    -1.6060 c6         1 B5G      -0.099700
     10 N5           8.8810    -0.8720     0.4150 n3         1 B5G      -0.713600
     11 C9          -0.7340     1.6420    -2.2610 ca         1 B5G      -0.121000
     12 C11          0.7080     1.3760    -0.3030 ca         1 B5G      -0.147600
     13 C12         -0.3620     1.8250     0.5070 ca         1 B5G      -0.031000
     14 C27         10.1370    -1.2940     1.0710 c3         1 B5G       0.152100
     15 C7          -1.6070     2.1840    -0.0470 ca         1 B5G      -0.092300
     16 C8          -1.7830     2.0850    -1.4430 ca         1 B5G      -0.066000
     17 C13          2.0250     1.0060     0.3530 c          1 B5G       0.621700
     18 O14          2.1840     1.0960     1.5610 o          1 B5G      -0.579100
     19 C15         -2.7350     2.6600     0.8800 c5         1 B5G       0.173000
     20 N16         -4.0110     2.0170     0.4930 n          1 B5G      -0.438800
     21 C17         -5.0730     2.9980     0.1760 c5         1 B5G       0.102000
     22 C18         -4.5170     4.2800     0.8480 c5         1 B5G      -0.094400
     23 C19         -3.0020     4.1610     0.5560 c5         1 B5G      -0.090400
     24 O21         -3.3220    -0.1420     0.8770 o          1 B5G      -0.609100
     25 N22         -5.4370     0.1970     0.0230 ns         1 B5G      -0.164000
     26 N23          3.0190     0.5690    -0.4840 ns         1 B5G      -0.464400
     27 N25          5.0580    -0.2050    -1.1840 nd         1 B5G      -0.704000
     28 S26          5.0280     0.1180     1.4170 ss         1 B5G       0.064600
     29 C29         -5.2990    -2.2990     0.0440 ca         1 B5G      -0.095000
     30 C30         -5.9340    -3.5420    -0.1560 ca         1 B5G       0.011000
     31 C31         -7.2820    -3.5830    -0.5580 ca         1 B5G      -0.104000
     32 C32         -7.9900    -2.3880    -0.7610 ca         1 B5G      -0.084000
     33 C33         -7.3540    -1.1520    -0.5610 ca         1 B5G      -0.157000
     34 C34         -5.2050    -4.7650     0.0480 cg         1 B5G       0.323000
     35 N35         -4.6050    -5.7540     0.2150 n1         1 B5G      -0.450000
     36 H1           8.2630    -2.7010    -0.4850 h1         1 B5G       0.034700
     37 H2           9.4460    -1.7890    -1.4350 h1         1 B5G       0.034700
     38 H3           7.9440    -0.1040     2.1700 h1         1 B5G       0.042700
     39 H4           7.6120    -1.8110     1.8500 h1         1 B5G       0.042700
     40 H5           1.2900     0.9520    -2.3730 ha         1 B5G       0.115000
     41 H6           7.8210    -0.1870    -2.1670 hc         1 B5G       0.063700
     42 H7           7.0490    -1.7580    -2.3490 hc         1 B5G       0.063700
     43 H9          -0.8810     1.5710    -3.3370 ha         1 B5G       0.119000
     44 H10         -0.2280     1.8980     1.5850 ha         1 B5G       0.139000
     45 H11         10.9770    -1.2490     0.3660 h1         1 B5G       0.031033
     46 H12         10.3720    -0.6360     1.9190 h1         1 B5G       0.031033
     47 H13         10.0570    -2.3240     1.4450 h1         1 B5G       0.031033
     48 H14         -2.7340     2.3520    -1.8980 ha         1 B5G       0.116000
     49 H15         -2.5130     2.4950     1.9440 h1         1 B5G       0.071700
     50 H16         -5.1740     3.1220    -0.9110 h1         1 B5G       0.045700
     51 H17         -6.0500     2.7200     0.5920 h1         1 B5G       0.045700
     52 H18         -4.9600     5.1940     0.4380 hc         1 B5G       0.059700
     53 H19         -4.7130     4.2750     1.9270 hc         1 B5G       0.059700
     54 H20         -2.3960     4.8320     1.1740 hc         1 B5G       0.061200
     55 H21         -2.7950     4.4120    -0.4910 hc         1 B5G       0.061200
     56 H22         -6.0500     0.9530    -0.2480 hn         1 B5G       0.150000
     57 H23          2.7800     0.5330    -1.4600 hn         1 B5G       0.343500
     58 H24         -4.2570    -2.2940     0.3470 ha         1 B5G       0.157000
     59 H25         -7.7800    -4.5380    -0.7150 ha         1 B5G       0.128000
     60 H26         -9.0320    -2.4210    -1.0730 ha         1 B5G       0.119000
     61 H27         -7.9150    -0.2340    -0.7220 ha         1 B5G       0.110000
@<TRIPOS>BOND
     1     1     9 1   
     2     1    10 1   
     3     1    36 1   
     4     1    37 1   
     5     2     7 1   
     6     2    10 1   
     7     2    38 1   
     8     2    39 1   
     9     3    11 ar  
    10     3    12 ar  
    11     3    40 1   
    12     4    20 1   
    13     4    24 2   
    14     4    25 1   
    15     5    26 1   
    16     5    27 2   
    17     5    28 1   
    18     6    25 1   
    19     6    29 ar  
    20     6    33 ar  
    21     7     8 2   
    22     7    28 1   
    23     8     9 1   
    24     8    27 1   
    25     9    41 1   
    26     9    42 1   
    27    10    14 1   
    28    11    16 ar  
    29    11    43 1   
    30    12    13 ar  
    31    12    17 1   
    32    13    15 ar  
    33    13    44 1   
    34    14    45 1   
    35    14    46 1   
    36    14    47 1   
    37    15    16 ar  
    38    15    19 1   
    39    16    48 1   
    40    17    18 2   
    41    17    26 1   
    42    19    20 1   
    43    19    23 1   
    44    19    49 1   
    45    20    21 1   
    46    21    22 1   
    47    21    50 1   
    48    21    51 1   
    49    22    23 1   
    50    22    52 1   
    51    22    53 1   
    52    23    54 1   
    53    23    55 1   
    54    25    56 1   
    55    26    57 1   
    56    29    30 ar  
    57    29    58 1   
    58    30    31 ar  
    59    30    34 1   
    60    31    32 ar  
    61    31    59 1   
    62    32    33 ar  
    63    32    60 1   
    64    33    61 1   
    65    34    35 3   
@<TRIPOS>SUBSTRUCTURE
     1 B5G         1 TEMP              0 ****  ****    0 ROOT
