@<TRIPOS>MOLECULE
B5H
   22    23     1     0     0
SMALL
No Charge or Current Charge


@<TRIPOS>ATOM
      1 N10          2.1150     0.9940    -0.0690 ns         1 B5H      -0.537600
      2 CA           2.3450    -0.3780    -0.0270 cc         1 B5H      -0.052600
      3 CB           1.4570    -1.4210    -0.0430 cf         1 B5H      -0.141200
      4 CG          -0.0180    -1.5410    -0.1070 ca         1 B5H      -0.055800
      5 CD1         -0.5960    -2.8290    -0.1040 ca         1 B5H      -0.082000
      6 CE1         -1.9910    -2.9930    -0.1640 ca         1 B5H      -0.107000
      7 CZ          -2.8290    -1.8690    -0.2280 ca         1 B5H      -0.075000
      8 CE2         -2.2660    -0.5840    -0.2310 ca         1 B5H      -0.019900
      9 CD2         -0.8710    -0.4180    -0.1720 ca         1 B5H      -0.082000
     10 C            3.8300    -0.4740     0.0430 c          1 B5H       0.572200
     11 N11          4.2260     0.8270     0.0310 ns         1 B5H      -0.482500
     12 C2           3.2420     1.7500    -0.0360 c          1 B5H       0.615000
     13 Br1         -3.4020     0.9520    -0.3180 br         1 B5H      -0.090100
     14 O2           3.3390     2.9600    -0.0600 o          1 B5H      -0.523000
     15 O3           4.5530    -1.4560     0.0990 o          1 B5H      -0.489000
     16 H10          1.2110     1.4490    -0.1220 hn         1 B5H       0.472000
     17 HB           1.9660    -2.3870     0.0020 ha         1 B5H       0.211000
     18 HD1          0.0370    -3.7130    -0.0560 ha         1 B5H       0.122000
     19 HD2         -0.4700     0.5870    -0.1760 ha         1 B5H       0.129000
     20 HE1         -2.4220    -3.9920    -0.1610 ha         1 B5H       0.122000
     21 HZ          -3.9090    -1.9940    -0.2740 ha         1 B5H       0.133000
     22 H11          5.1970     1.0900     0.0690 hn         1 B5H       0.360500
@<TRIPOS>BOND
     1     1     2 1   
     2     1    12 1   
     3     1    16 1   
     4     2     3 2   
     5     2    10 1   
     6     3     4 1   
     7     3    17 1   
     8     4     5 ar  
     9     4     9 ar  
    10     5     6 ar  
    11     5    18 1   
    12     6     7 ar  
    13     6    20 1   
    14     7     8 ar  
    15     7    21 1   
    16     8     9 ar  
    17     8    13 1   
    18     9    19 1   
    19    10    11 1   
    20    10    15 2   
    21    11    12 1   
    22    11    22 1   
    23    12    14 2   
@<TRIPOS>SUBSTRUCTURE
     1 B5H         1 TEMP              0 ****  ****    0 ROOT
