@<TRIPOS>MOLECULE
B5H
   22    23     1     0     0
SMALL
abcg2


@<TRIPOS>ATOM
      1 N10          2.0040     0.9000    -0.3330 ns         1 B5H      -0.537600
      2 CA           2.2700    -0.3980     0.0640 cc         1 B5H      -0.052600
      3 CB           1.4680    -1.4560     0.2200 cf         1 B5H      -0.141200
      4 CG           0.0230    -1.5310     0.0420 ca         1 B5H      -0.055800
      5 CD1         -0.5400    -2.7590    -0.3180 ca         1 B5H      -0.082000
      6 CE1         -1.9060    -2.8790    -0.5100 ca         1 B5H      -0.107000
      7 CZ          -2.7450    -1.7880    -0.3310 ca         1 B5H      -0.075000
      8 CE2         -2.1860    -0.5780     0.0540 ca         1 B5H      -0.019900
      9 CD2         -0.8220    -0.4360     0.2450 ca         1 B5H      -0.082000
     10 C            3.7410    -0.4440     0.2930 c          1 B5H       0.572200
     11 N11          4.1750     0.8170    -0.0090 ns         1 B5H      -0.482500
     12 C2           3.1460     1.6480    -0.4190 c          1 B5H       0.615000
     13 BR1         -3.3130     0.9100     0.3400 br         1 B5H      -0.090100
     14 O2           3.2470     2.7960    -0.7760 o          1 B5H      -0.523000
     15 O3           4.4080    -1.3780     0.6660 o          1 B5H      -0.489000
     16 H10          1.1300     1.2340    -0.7090 hn         1 B5H       0.472000
     17 HB           1.9680    -2.3820     0.4800 ha         1 B5H       0.211000
     18 HD1          0.1020    -3.6190    -0.4580 ha         1 B5H       0.122000
     19 HD2         -0.4270     0.5080     0.5960 ha         1 B5H       0.129000
     20 HE1         -2.3280    -3.8320    -0.7990 ha         1 B5H       0.122000
     21 HZ          -3.8110    -1.8920    -0.4790 ha         1 B5H       0.133000
     22 H11          5.1390     1.1180     0.0380 hn         1 B5H       0.360500
@<TRIPOS>BOND
     1     1     2 1   
     2     1    12 1   
     3     1    16 1   
     4     2     3 2   
     5     2    10 1   
     6     3     4 1   
     7     3    17 1   
     8     4     5 ar  
     9     4     9 ar  
    10     5     6 ar  
    11     5    18 1   
    12     6     7 ar  
    13     6    20 1   
    14     7     8 ar  
    15     7    21 1   
    16     8     9 ar  
    17     8    13 1   
    18     9    19 1   
    19    10    11 1   
    20    10    15 2   
    21    11    12 1   
    22    11    22 1   
    23    12    14 2   
@<TRIPOS>SUBSTRUCTURE
     1 B5H         1 TEMP              0 ****  ****    0 ROOT
