@<TRIPOS>MOLECULE
B5J
   38    40     1     0     0
SMALL
abcg2


@<TRIPOS>ATOM
      1 C10         -9.7900    28.7320    23.8300 ca         1 B5J      -0.036000
      2 C13         -9.0650    30.5380    21.8410 ca         1 B5J      -0.106167
      3 C15        -11.6100    26.1730    22.2290 ca         1 B5J      -0.385500
      4 C17        -13.3540    24.5220    22.3110 ca         1 B5J      -0.106167
      5 C20        -12.5610    27.1900    22.2600 ca         1 B5J      -0.036000
      6 C01         -8.9650    25.5530    23.3240 c3         1 B5J      -0.482100
      7 C03         -9.2520    26.2170    20.4800 ca         1 B5J      -0.385500
      8 C04         -7.8750    26.1670    20.2570 ca         1 B5J      -0.036000
      9 C05         -7.3970    25.9250    18.9800 ca         1 B5J      -0.106167
     10 C06         -8.2860    25.7350    17.9280 ca         1 B5J      -0.032000
     11 C07         -9.6540    25.7880    18.1510 ca         1 B5J      -0.106167
     12 C08        -10.1430    26.0310    19.4260 ca         1 B5J      -0.036000
     13 C09         -9.6070    28.2980    22.5170 ca         1 B5J      -0.385500
     14 C11         -9.6060    30.0690    24.1400 ca         1 B5J      -0.106167
     15 C12         -9.2410    30.9700    23.1470 ca         1 B5J      -0.032000
     16 C14         -9.2480    29.2000    21.5190 ca         1 B5J      -0.036000
     17 C16        -12.0060    24.8350    22.2500 ca         1 B5J      -0.036000
     18 C18        -14.3030    25.5360    22.3480 ca         1 B5J      -0.032000
     19 C19        -13.9080    26.8650    22.3210 ca         1 B5J      -0.106167
     20 P02         -9.8610    26.5640    22.1310 p5         1 B5J       1.259500
     21 H1         -10.0800    28.0390    24.6110 ha         1 B5J       0.123500
     22 H2          -8.7820    31.2390    21.0670 ha         1 B5J       0.140000
     23 H3         -13.6630    23.4860    22.3300 ha         1 B5J       0.140000
     24 H4         -12.2620    28.2300    22.2370 ha         1 B5J       0.123500
     25 H5          -9.3970    25.6880    24.3140 hc         1 B5J       0.109700
     26 H6          -9.0340    24.5050    23.0410 hc         1 B5J       0.109700
     27 H7          -7.9190    25.8530    23.3460 hc         1 B5J       0.109700
     28 H8          -7.1720    26.3190    21.0670 ha         1 B5J       0.123500
     29 H9          -6.3310    25.8840    18.8060 ha         1 B5J       0.140000
     30 H10         -7.9090    25.5440    16.9320 ha         1 B5J       0.140000
     31 H11        -10.3450    25.6400    17.3320 ha         1 B5J       0.140000
     32 H12        -11.2120    26.0720    19.5900 ha         1 B5J       0.123500
     33 H13         -9.7460    30.4070    25.1580 ha         1 B5J       0.140000
     34 H14         -9.0940    32.0130    23.3940 ha         1 B5J       0.140000
     35 H15         -9.1090    28.8720    20.4970 ha         1 B5J       0.123500
     36 H16        -11.2760    24.0370    22.2150 ha         1 B5J       0.123500
     37 H17        -15.3550    25.2870    22.3980 ha         1 B5J       0.140000
     38 H18        -14.6470    27.6550    22.3480 ha         1 B5J       0.140000
@<TRIPOS>BOND
     1     1    13 ar  
     2     1    14 ar  
     3     1    21 1   
     4     2    15 ar  
     5     2    16 ar  
     6     2    22 1   
     7     3     5 ar  
     8     3    17 ar  
     9     3    20 1   
    10     4    17 ar  
    11     4    18 ar  
    12     4    23 1   
    13     5    19 ar  
    14     5    24 1   
    15     6    20 1   
    16     6    25 1   
    17     6    26 1   
    18     6    27 1   
    19     7     8 ar  
    20     7    12 ar  
    21     7    20 1   
    22     8     9 ar  
    23     8    28 1   
    24     9    10 ar  
    25     9    29 1   
    26    10    11 ar  
    27    10    30 1   
    28    11    12 ar  
    29    11    31 1   
    30    12    32 1   
    31    13    16 ar  
    32    13    20 1   
    33    14    15 ar  
    34    14    33 1   
    35    15    34 1   
    36    16    35 1   
    37    17    36 1   
    38    18    19 ar  
    39    18    37 1   
    40    19    38 1   
@<TRIPOS>SUBSTRUCTURE
     1 B5J         1 TEMP              0 ****  ****    0 ROOT
