@<TRIPOS>MOLECULE
B5J
   38    40     1     0     0
SMALL
No Charge or Current Charge


@<TRIPOS>ATOM
      1 C10         -9.7410    28.7760    23.8770 ca         1 B5J      -0.036000
      2 C13         -9.0650    30.6120    21.8560 ca         1 B5J      -0.106167
      3 C15        -11.6460    26.1570    22.2340 ca         1 B5J      -0.385500
      4 C17        -13.4320    24.4940    22.3050 ca         1 B5J      -0.106167
      5 C20        -12.6130    27.1850    22.2890 ca         1 B5J      -0.036000
      6 C01         -8.9480    25.5290    23.3470 c3         1 B5J      -0.482100
      7 C03         -9.2260    26.2050    20.4530 ca         1 B5J      -0.385500
      8 C04         -7.8340    26.1690    20.2160 ca         1 B5J      -0.036000
      9 C05         -7.3450    25.9050    18.9250 ca         1 B5J      -0.106167
     10 C06         -8.2380    25.6760    17.8650 ca         1 B5J      -0.032000
     11 C07         -9.6230    25.7130    18.0950 ca         1 B5J      -0.106167
     12 C08        -10.1200    25.9770    19.3830 ca         1 B5J      -0.036000
     13 C09         -9.5950    28.3300    22.5450 ca         1 B5J      -0.385500
     14 C11         -9.5480    30.1320    24.1910 ca         1 B5J      -0.106167
     15 C12         -9.2090    31.0500    23.1830 ca         1 B5J      -0.032000
     16 C14         -9.2570    29.2580    21.5340 ca         1 B5J      -0.036000
     17 C16        -12.0640    24.8070    22.2400 ca         1 B5J      -0.036000
     18 C18        -14.3900    25.5200    22.3630 ca         1 B5J      -0.032000
     19 C19        -13.9790    26.8630    22.3540 ca         1 B5J      -0.106167
     20 P02         -9.8570    26.5590    22.1400 p5         1 B5J       1.259500
     21 H1         -10.0070    28.0800    24.6720 ha         1 B5J       0.123500
     22 H2          -8.8050    31.3230    21.0760 ha         1 B5J       0.140000
     23 H3         -13.7510    23.4540    22.3100 ha         1 B5J       0.140000
     24 H4         -12.3170    28.2330    22.2790 ha         1 B5J       0.123500
     25 H5          -9.5280    25.4740    24.2740 hc         1 B5J       0.109700
     26 H6          -8.8150    24.5260    22.9280 hc         1 B5J       0.109700
     27 H7          -7.9730    25.9870    23.5410 hc         1 B5J       0.109700
     28 H8          -7.1260    26.3480    21.0260 ha         1 B5J       0.123500
     29 H9          -6.2730    25.8780    18.7460 ha         1 B5J       0.140000
     30 H10         -7.8570    25.4720    16.8660 ha         1 B5J       0.140000
     31 H11        -10.3140    25.5380    17.2730 ha         1 B5J       0.140000
     32 H12        -11.1980    26.0050    19.5380 ha         1 B5J       0.123500
     33 H13         -9.6610    30.4730    25.2180 ha         1 B5J       0.140000
     34 H14         -9.0600    32.1000    23.4290 ha         1 B5J       0.140000
     35 H15         -9.1440    28.9400    20.4980 ha         1 B5J       0.123500
     36 H16        -11.3350    23.9980    22.1920 ha         1 B5J       0.123500
     37 H17        -15.4490    25.2740    22.4130 ha         1 B5J       0.140000
     38 H18        -14.7220    27.6570    22.3970 ha         1 B5J       0.140000
@<TRIPOS>BOND
     1     1    13 ar  
     2     1    14 ar  
     3     1    21 1   
     4     2    15 ar  
     5     2    16 ar  
     6     2    22 1   
     7     3     5 ar  
     8     3    17 ar  
     9     3    20 1   
    10     4    17 ar  
    11     4    18 ar  
    12     4    23 1   
    13     5    19 ar  
    14     5    24 1   
    15     6    20 1   
    16     6    25 1   
    17     6    26 1   
    18     6    27 1   
    19     7     8 ar  
    20     7    12 ar  
    21     7    20 1   
    22     8     9 ar  
    23     8    28 1   
    24     9    10 ar  
    25     9    29 1   
    26    10    11 ar  
    27    10    30 1   
    28    11    12 ar  
    29    11    31 1   
    30    12    32 1   
    31    13    16 ar  
    32    13    20 1   
    33    14    15 ar  
    34    14    33 1   
    35    15    34 1   
    36    16    35 1   
    37    17    36 1   
    38    18    19 ar  
    39    18    37 1   
    40    19    38 1   
@<TRIPOS>SUBSTRUCTURE
     1 B5J         1 TEMP              0 ****  ****    0 ROOT
