@<TRIPOS>MOLECULE
B5K
   54    56     1     0     0
SMALL
No Charge or Current Charge


@<TRIPOS>ATOM
      1 N           -0.1020     0.7300     1.9710 na         1 B5K      -0.185700
      2 C            2.7240     1.6320    -0.9180 ca         1 B5K      -0.144000
      3 O            1.0680    -3.5540    -1.8840 o          1 B5K      -0.632100
      4 C1           2.6050     2.5440     0.1570 ca         1 B5K       0.118000
      5 C10         -2.4080    -0.9870    -1.7720 c3         1 B5K       0.148300
      6 C11         -2.5920     0.3720    -1.0960 ca         1 B5K      -0.038300
      7 C12         -1.7990     1.4780    -1.4710 ca         1 B5K      -0.121500
      8 C13         -1.9250     2.7040    -0.7980 ca         1 B5K       0.161500
      9 C14         -2.8560     2.8470     0.2450 ca         1 B5K       0.090000
     10 C15         -3.6630     1.7540     0.6080 ca         1 B5K       0.161500
     11 C16         -3.5340     0.5240    -0.0580 ca         1 B5K      -0.121500
     12 C17          3.1200    -3.5520     0.2390 c3         1 B5K       0.141400
     13 C18          2.8770    -5.0820     0.2280 c3         1 B5K      -0.103100
     14 C19          3.7640    -3.1500     1.5870 c3         1 B5K      -0.103100
     15 C2           1.6700     2.3180     1.1870 ca         1 B5K      -0.112000
     16 C20          4.0680    -3.1400    -0.9150 c3         1 B5K      -0.103100
     17 C22         -0.3180    -1.2270    -3.1470 c          1 B5K       0.615900
     18 C3           0.8690     1.1730     1.0990 ca         1 B5K      -0.064200
     19 C4           0.9700     0.2980     0.0580 ca         1 B5K      -0.085800
     20 C5           1.9000     0.4880    -0.9760 ca         1 B5K      -0.072000
     21 C6          -0.6810    -0.4720     1.5090 cc         1 B5K      -0.059300
     22 C7          -0.0160    -0.7410     0.2930 cd         1 B5K      -0.230400
     23 C8          -0.2800    -1.8840    -0.6870 c3         1 B5K       0.099900
     24 C9           0.9420    -2.8340    -0.9010 c          1 B5K       0.598100
     25 F           -2.9770     4.0310     0.8940 f          1 B5K      -0.160000
     26 F1          -4.5670     1.8770     1.6070 f          1 B5K      -0.171500
     27 F2          -1.1400     3.7450    -1.1610 f          1 B5K      -0.171500
     28 N1          -0.9880    -1.3960    -1.9170 n          1 B5K      -0.388800
     29 N2           1.8510    -2.8260     0.1420 ns         1 B5K      -0.500900
     30 O1          -2.2030    -2.2830     1.7070 o          1 B5K      -0.697000
     31 O2          -2.1970    -0.8010     3.2490 o          1 B5K      -0.697000
     32 O3          -0.8780    -0.8150    -4.1590 o          1 B5K      -0.636100
     33 Cl           3.6390     3.9650     0.2130 cl         1 B5K      -0.246000
     34 H1          -0.3660     1.1940     2.8340 hn         1 B5K       0.374000
     35 H2           3.4550     1.8130    -1.7010 ha         1 B5K       0.113000
     36 H3          -2.9280    -1.7540    -1.1850 h1         1 B5K       0.067700
     37 H4          -2.8970    -0.9620    -2.7540 h1         1 B5K       0.067700
     38 H5          -1.0640     1.3850    -2.2650 ha         1 B5K       0.137500
     39 H6          -4.1550    -0.3140     0.2470 ha         1 B5K       0.137500
     40 H7           2.4740    -5.4210    -0.7320 hc         1 B5K       0.041144
     41 H8           3.8150    -5.6240     0.4010 hc         1 B5K       0.041144
     42 H9           2.1700    -5.3700     1.0150 hc         1 B5K       0.041144
     43 H10          3.1130    -3.4200     2.4280 hc         1 B5K       0.041144
     44 H11          4.7270    -3.6560     1.7280 hc         1 B5K       0.041144
     45 H12          3.9410    -2.0680     1.6290 hc         1 B5K       0.041144
     46 H13          1.5770     3.0110     2.0190 ha         1 B5K       0.123000
     47 H14          4.2040    -2.0520    -0.9380 hc         1 B5K       0.041144
     48 H15          5.0550    -3.6020    -0.7900 hc         1 B5K       0.041144
     49 H16          3.6790    -3.4550    -1.8900 hc         1 B5K       0.041144
     50 H17          0.7550    -1.4800    -3.1180 h5         1 B5K       0.017200
     51 H18          1.9980    -0.2180    -1.7930 ha         1 B5K       0.114000
     52 H19         -0.9750    -2.5780    -0.2120 h1         1 B5K       0.132700
     53 H20          1.6330    -2.1690     0.8840 hn         1 B5K       0.334500
     54 C21         -1.7740    -1.2470     2.1910 c          1 B5K       0.722200
@<TRIPOS>BOND
     1     1    18 1   
     2     1    21 1   
     3     1    34 1   
     4     2     4 ar  
     5     2    20 ar  
     6     2    35 1   
     7     3    24 2   
     8     4    15 ar  
     9     4    33 1   
    10     5     6 1   
    11     5    28 1   
    12     5    36 1   
    13     5    37 1   
    14     6     7 ar  
    15     6    11 ar  
    16     7     8 ar  
    17     7    38 1   
    18     8     9 ar  
    19     8    27 1   
    20     9    10 ar  
    21     9    25 1   
    22    10    11 ar  
    23    10    26 1   
    24    11    39 1   
    25    12    13 1   
    26    12    14 1   
    27    12    16 1   
    28    12    29 1   
    29    13    40 1   
    30    13    41 1   
    31    13    42 1   
    32    14    43 1   
    33    14    44 1   
    34    14    45 1   
    35    15    18 ar  
    36    15    46 1   
    37    16    47 1   
    38    16    48 1   
    39    16    49 1   
    40    17    28 1   
    41    17    32 2   
    42    17    50 1   
    43    18    19 ar  
    44    19    20 ar  
    45    19    22 1   
    46    20    51 1   
    47    21    22 2   
    48    21    54 1   
    49    22    23 1   
    50    23    24 1   
    51    23    28 1   
    52    23    52 1   
    53    24    29 1   
    54    29    53 1   
    55    30    54 1   
    56    31    54 1   
@<TRIPOS>SUBSTRUCTURE
     1 B5K         1 TEMP              0 ****  ****    0 ROOT
