@<TRIPOS>MOLECULE
B5K
   54    56     1     0     0
SMALL
abcg2


@<TRIPOS>ATOM
      1 N            0.4900     1.4770     1.6460 na         1 B5K      -0.185700
      2 C            3.6600     1.4450    -0.9420 ca         1 B5K      -0.144000
      3 O            1.0540    -3.0590    -1.9360 o          1 B5K      -0.632100
      4 C1           3.5800     2.5120    -0.0360 ca         1 B5K       0.118000
      5 C10         -2.2630    -1.2020    -1.6080 c3         1 B5K       0.148300
      6 C11         -2.9370    -0.0280    -0.9380 ca         1 B5K      -0.038300
      7 C12         -2.3630     1.2360    -0.9210 ca         1 B5K      -0.121500
      8 C13         -3.0200     2.2730    -0.2930 ca         1 B5K       0.161500
      9 C14         -4.2480     2.0880     0.3110 ca         1 B5K       0.090000
     10 C15         -4.8140     0.8280     0.2770 ca         1 B5K       0.161500
     11 C16         -4.1750    -0.2260    -0.3370 ca         1 B5K      -0.121500
     12 C17          2.9430    -3.7520     0.1850 c3         1 B5K       0.141400
     13 C18          2.4010    -5.1640    -0.0360 c3         1 B5K      -0.103100
     14 C19          3.5700    -3.6600     1.5750 c3         1 B5K      -0.103100
     15 C2           2.5570     2.6330     0.8790 ca         1 B5K      -0.112000
     16 C20          3.9970    -3.4060    -0.8680 c3         1 B5K      -0.103100
     17 C22         -0.2330    -0.6260    -2.7940 c          1 B5K       0.615900
     18 C3           1.5840     1.6350     0.8600 ca         1 B5K      -0.064200
     19 C4           1.6150     0.5500    -0.0460 ca         1 B5K      -0.085800
     20 C5           2.6860     0.4670    -0.9460 ca         1 B5K      -0.072000
     21 C6          -0.1820     0.3430     1.2990 cc         1 B5K      -0.059300
     22 C7           0.4720    -0.2620     0.2490 cd         1 B5K      -0.230400
     23 C8          -0.0420    -1.4500    -0.5070 c3         1 B5K       0.099900
     24 C9           1.0280    -2.5030    -0.8500 c          1 B5K       0.598100
     25 F           -4.8680     3.1000     0.9200 f          1 B5K      -0.160000
     26 F1          -5.9980     0.6480     0.8700 f          1 B5K      -0.171500
     27 F2          -2.4730     3.4910    -0.2550 f          1 B5K      -0.171500
     28 N1          -0.8240    -1.0940    -1.6800 n          1 B5K      -0.388800
     29 N2           1.8550    -2.7660     0.1680 ns         1 B5K      -0.500900
     30 O1          -1.8800    -1.1780     1.8810 o          1 B5K      -0.697000
     31 O2          -1.8220     0.8200     2.8820 o          1 B5K      -0.697000
     32 O3          -0.8170    -0.2920    -3.8100 o          1 B5K      -0.636100
     33 CL           4.8270     3.7220    -0.0700 cl         1 B5K      -0.246000
     34 H1           0.1830     2.0880     2.3860 hn         1 B5K       0.374000
     35 H2           4.4890     1.3870    -1.6330 ha         1 B5K       0.113000
     36 H3          -2.5190    -2.1150    -1.0700 h1         1 B5K       0.067700
     37 H4          -2.6560    -1.3170    -2.6190 h1         1 B5K       0.067700
     38 H5          -1.3960     1.4320    -1.3640 ha         1 B5K       0.137500
     39 H6          -4.6370    -1.2050    -0.3240 ha         1 B5K       0.137500
     40 H7           1.9660    -5.2770    -1.0270 hc         1 B5K       0.041144
     41 H8           3.2090    -5.8890     0.0600 hc         1 B5K       0.041144
     42 H9           1.6390    -5.4080     0.7060 hc         1 B5K       0.041144
     43 H10          2.8360    -3.8770     2.3540 hc         1 B5K       0.041144
     44 H11          4.3830    -4.3790     1.6720 hc         1 B5K       0.041144
     45 H12          3.9810    -2.6650     1.7600 hc         1 B5K       0.041144
     46 H13          2.5130     3.4570     1.5790 ha         1 B5K       0.123000
     47 H14          4.3880    -2.4000    -0.7070 hc         1 B5K       0.041144
     48 H15          4.8310    -4.1070    -0.8050 hc         1 B5K       0.041144
     49 H16          3.5910    -3.4610    -1.8770 hc         1 B5K       0.041144
     50 H17          0.8580    -0.5520    -2.7090 h5         1 B5K       0.017200
     51 H18          2.7770    -0.3520    -1.6470 ha         1 B5K       0.114000
     52 H19         -0.7330    -1.9540     0.1730 h1         1 B5K       0.132700
     53 H20          1.7310    -2.2180     1.0060 hn         1 B5K       0.334500
     54 C21         -1.4150    -0.0420     2.0840 c          1 B5K       0.722200
@<TRIPOS>BOND
     1     1    18 1   
     2     1    21 1   
     3     1    34 1   
     4     2     4 ar  
     5     2    20 ar  
     6     2    35 1   
     7     3    24 2   
     8     4    15 ar  
     9     4    33 1   
    10     5     6 1   
    11     5    28 1   
    12     5    36 1   
    13     5    37 1   
    14     6     7 ar  
    15     6    11 ar  
    16     7     8 ar  
    17     7    38 1   
    18     8     9 ar  
    19     8    27 1   
    20     9    10 ar  
    21     9    25 1   
    22    10    11 ar  
    23    10    26 1   
    24    11    39 1   
    25    12    13 1   
    26    12    14 1   
    27    12    16 1   
    28    12    29 1   
    29    13    40 1   
    30    13    41 1   
    31    13    42 1   
    32    14    43 1   
    33    14    44 1   
    34    14    45 1   
    35    15    18 ar  
    36    15    46 1   
    37    16    47 1   
    38    16    48 1   
    39    16    49 1   
    40    17    28 1   
    41    17    32 2   
    42    17    50 1   
    43    18    19 ar  
    44    19    20 ar  
    45    19    22 1   
    46    20    51 1   
    47    21    22 2   
    48    21    54 1   
    49    22    23 1   
    50    23    24 1   
    51    23    28 1   
    52    23    52 1   
    53    24    29 1   
    54    29    53 1   
    55    30    54 1   
    56    31    54 1   
@<TRIPOS>SUBSTRUCTURE
     1 B5K         1 TEMP              0 ****  ****    0 ROOT
