@<TRIPOS>MOLECULE
B5L
   56    55     1     0     0
SMALL
No Charge or Current Charge


@<TRIPOS>ATOM
      1 C5           0.9500     0.0090    -0.7360 c3         1 B5L       0.091600
      2 C4           2.2790     0.0190     0.0500 c3         1 B5L      -0.096400
      3 C3           3.5110     0.0190    -0.8810 c3         1 B5L      -0.109400
      4 C2           4.8380     0.0290    -0.1040 c3         1 B5L       0.099600
      5 N18         -0.3700    -5.1120     0.6290 nz         1 B5L      -0.974000
      6 C17         -0.4350    -3.7730     1.3290 c3         1 B5L       0.097933
      7 C16         -0.3670    -2.6260     0.3080 c3         1 B5L      -0.128400
      8 C15         -0.4300    -1.2380     0.9850 c3         1 B5L       0.091933
      9 N6          -0.3660     0.0070     0.0730 n4         1 B5L      -0.504000
     10 C11         -0.4410     1.2610     0.9730 c3         1 B5L       0.091933
     11 C12         -0.3890     2.6430     0.2840 c3         1 B5L      -0.128400
     12 C13         -0.4680     3.7980     1.2930 c3         1 B5L       0.097933
     13 N14         -0.4140     5.1310     0.5810 nz         1 B5L      -0.974000
     14 C7          -1.5410    -0.0020    -0.9310 c3         1 B5L       0.091933
     15 C8          -2.9750    -0.0060    -0.3560 c3         1 B5L      -0.128400
     16 C9          -4.0420    -0.0160    -1.4620 c3         1 B5L       0.097933
     17 N10         -5.4300    -0.0190    -0.8610 nz         1 B5L      -0.974000
     18 N1           6.0150     0.0290    -1.0490 nz         1 B5L      -0.974000
     19 H1           0.9300     0.8850    -1.3890 hx         1 B5L       0.108700
     20 H2           0.9380    -0.8720    -1.3810 hx         1 B5L       0.108700
     21 H3           2.3180     0.9040     0.6950 hc         1 B5L       0.074200
     22 H4           2.3250    -0.8600     0.7040 hc         1 B5L       0.074200
     23 H5           3.4770    -0.8670    -1.5280 hc         1 B5L       0.086700
     24 H6           3.4690     0.8990    -1.5360 hc         1 B5L       0.086700
     25 H7           4.8810     0.9200     0.5340 hx         1 B5L       0.117700
     26 H8           4.8890    -0.8560     0.5430 hx         1 B5L       0.117700
     27 H9          -0.4130    -5.9150     1.2780 hn         1 B5L       0.541222
     28 H10         -1.1410    -5.2720    -0.0390 hn         1 B5L       0.541222
     29 H11          0.4970    -5.2570     0.0870 hn         1 B5L       0.541222
     30 H12         -1.3700    -3.7020     1.9000 hx         1 B5L       0.129700
     31 H13          0.4000    -3.6870     2.0360 hx         1 B5L       0.129700
     32 H14          0.5640    -2.7130    -0.2640 hc         1 B5L       0.084367
     33 H15         -1.1970    -2.7270    -0.4000 hc         1 B5L       0.084367
     34 H16         -1.3570    -1.1740     1.5610 hx         1 B5L       0.114533
     35 H17          0.3960    -1.1630     1.6970 hx         1 B5L       0.114533
     36 H18         -1.3670     1.1940     1.5500 hx         1 B5L       0.114533
     37 H19          0.3860     1.1990     1.6860 hx         1 B5L       0.114533
     38 H20          0.5400     2.7320    -0.2900 hc         1 B5L       0.084367
     39 H21         -1.2210     2.7300    -0.4250 hc         1 B5L       0.084367
     40 H22         -1.4020     3.7250     1.8650 hx         1 B5L       0.129700
     41 H23          0.3680     3.7260     2.0000 hx         1 B5L       0.129700
     42 H24          0.4510     5.2790     0.0370 hn         1 B5L       0.541222
     43 H25         -1.1870     5.2780    -0.0880 hn         1 B5L       0.541222
     44 H26         -0.4640     5.9400     1.2220 hn         1 B5L       0.541222
     45 H27         -1.4260     0.8740    -1.5740 hx         1 B5L       0.114533
     46 H28         -1.4180    -0.8840    -1.5650 hx         1 B5L       0.114533
     47 H29         -3.1130    -0.8870     0.2810 hc         1 B5L       0.084367
     48 H30         -3.1200     0.8790     0.2730 hc         1 B5L       0.084367
     49 H31         -3.9200     0.8690    -2.0990 hx         1 B5L       0.129700
     50 H32         -3.9120    -0.9060    -2.0910 hx         1 B5L       0.129700
     51 H33         -5.6240    -0.8380    -0.2630 hn         1 B5L       0.541222
     52 H34         -5.6310     0.8040    -0.2710 hn         1 B5L       0.541222
     53 H35         -6.1820    -0.0260    -1.5690 hn         1 B5L       0.541222
     54 H36          6.0510    -0.7950    -1.6700 hn         1 B5L       0.538333
     55 H37          6.0440     0.8480    -1.6780 hn         1 B5L       0.538333
     56 H38          6.9280     0.0350    -0.5650 hn         1 B5L       0.538333
@<TRIPOS>BOND
     1     1     2 1   
     2     1     9 1   
     3     1    19 1   
     4     1    20 1   
     5     2     3 1   
     6     2    21 1   
     7     2    22 1   
     8     3     4 1   
     9     3    23 1   
    10     3    24 1   
    11     4    18 1   
    12     4    25 1   
    13     4    26 1   
    14     5     6 1   
    15     5    27 1   
    16     5    28 1   
    17     5    29 1   
    18     6     7 1   
    19     6    30 1   
    20     6    31 1   
    21     7     8 1   
    22     7    32 1   
    23     7    33 1   
    24     8     9 1   
    25     8    34 1   
    26     8    35 1   
    27     9    10 1   
    28     9    14 1   
    29    10    11 1   
    30    10    36 1   
    31    10    37 1   
    32    11    12 1   
    33    11    38 1   
    34    11    39 1   
    35    12    13 1   
    36    12    40 1   
    37    12    41 1   
    38    13    42 1   
    39    13    43 1   
    40    13    44 1   
    41    14    15 1   
    42    14    45 1   
    43    14    46 1   
    44    15    16 1   
    45    15    47 1   
    46    15    48 1   
    47    16    17 1   
    48    16    49 1   
    49    16    50 1   
    50    17    51 1   
    51    17    52 1   
    52    17    53 1   
    53    18    54 1   
    54    18    55 1   
    55    18    56 1   
@<TRIPOS>SUBSTRUCTURE
     1 B5L         1 TEMP              0 ****  ****    0 ROOT
