@<TRIPOS>MOLECULE
B5L
   56    55     1     0     0
SMALL
bcc


@<TRIPOS>ATOM
      1 C5           0.9050     0.0060    -0.7780 c3         1 B5L       0.119800
      2 C4           2.1930     0.0170     0.0230 c3         1 B5L      -0.096400
      3 C3           3.3880     0.0110    -0.9250 c3         1 B5L      -0.109400
      4 C2           4.6740     0.0480    -0.1230 c3         1 B5L       0.127800
      5 N18         -0.3530    -4.9660     0.7020 nz         1 B5L      -0.836600
      6 C17         -0.4030    -3.6210     1.3230 c3         1 B5L       0.126133
      7 C16         -0.3610    -2.5390     0.2580 c3         1 B5L      -0.128400
      8 C15         -0.4160    -1.1920     0.9570 c3         1 B5L       0.120133
      9 N6          -0.3640     0.0060     0.0440 n4         1 B5L      -0.616800
     10 C11         -0.4240     1.2140     0.9430 c3         1 B5L       0.120133
     11 C12         -0.3790     2.5550     0.2320 c3         1 B5L      -0.128400
     12 C13         -0.4290     3.6410     1.2920 c3         1 B5L       0.126133
     13 N14         -0.3930     4.9820     0.6640 nz         1 B5L      -0.836600
     14 C7          -1.5060    -0.0030    -0.9370 c3         1 B5L       0.120133
     15 C8          -2.8910    -0.0050    -0.3140 c3         1 B5L      -0.128400
     16 C9          -3.9070    -0.0110    -1.4420 c3         1 B5L       0.126133
     17 N10         -5.2870    -0.0180    -0.9050 nz         1 B5L      -0.836600
     18 N1           5.8590     0.0280    -1.0170 nz         1 B5L      -0.836600
     19 H1           0.8510     0.8750    -1.4320 hx         1 B5L       0.108700
     20 H2           0.8590    -0.8720    -1.4220 hx         1 B5L       0.108700
     21 H3           2.2540     0.9010     0.6610 hc         1 B5L       0.074200
     22 H4           2.2600    -0.8550     0.6780 hc         1 B5L       0.074200
     23 H5           3.3640    -0.8860    -1.5500 hc         1 B5L       0.086700
     24 H6           3.3410     0.8750    -1.5920 hc         1 B5L       0.086700
     25 H7           4.7460     0.9530     0.4770 hx         1 B5L       0.117700
     26 H8           4.7630    -0.8130     0.5360 hx         1 B5L       0.117700
     27 H9          -0.3850    -5.6980     1.4110 hn         1 B5L       0.486022
     28 H10         -1.1390    -5.1300     0.0730 hn         1 B5L       0.486022
     29 H11          0.5020    -5.1110     0.1650 hn         1 B5L       0.486022
     30 H12         -1.3180    -3.5770     1.9090 hx         1 B5L       0.129700
     31 H13          0.4470    -3.5530     1.9980 hx         1 B5L       0.129700
     32 H14          0.5550    -2.6440    -0.3250 hc         1 B5L       0.084367
     33 H15         -1.2030    -2.6690    -0.4240 hc         1 B5L       0.084367
     34 H16         -1.3270    -1.1050     1.5490 hx         1 B5L       0.114533
     35 H17          0.4150    -1.0870     1.6520 hx         1 B5L       0.114533
     36 H18         -1.3340     1.1260     1.5360 hx         1 B5L       0.114533
     37 H19          0.4080     1.1210     1.6380 hx         1 B5L       0.114533
     38 H20          0.5370     2.6650    -0.3510 hc         1 B5L       0.084367
     39 H21         -1.2220     2.6760    -0.4510 hc         1 B5L       0.084367
     40 H22         -1.3430     3.5920     1.8790 hx         1 B5L       0.129700
     41 H23          0.4220     3.5860     1.9660 hx         1 B5L       0.129700
     42 H24          0.4580     5.1280     0.1200 hn         1 B5L       0.486022
     43 H25         -1.1830     5.1350     0.0370 hn         1 B5L       0.486022
     44 H26         -0.4260     5.7200     1.3670 hn         1 B5L       0.486022
     45 H27         -1.3760     0.8670    -1.5790 hx         1 B5L       0.114533
     46 H28         -1.3700    -0.8760    -1.5730 hx         1 B5L       0.114533
     47 H29         -3.0410    -0.8830     0.3170 hc         1 B5L       0.084367
     48 H30         -3.0460     0.8770     0.3100 hc         1 B5L       0.084367
     49 H31         -3.8180     0.8730    -2.0700 hx         1 B5L       0.129700
     50 H32         -3.8090    -0.8940    -2.0690 hx         1 B5L       0.129700
     51 H33         -5.4730    -0.8450    -0.3360 hn         1 B5L       0.486022
     52 H34         -5.4780     0.7990    -0.3260 hn         1 B5L       0.486022
     53 H35         -5.9750    -0.0160    -1.6580 hn         1 B5L       0.486022
     54 H36          5.8930    -0.8190    -1.5840 hn         1 B5L       0.483133
     55 H37          5.8670     0.8230    -1.6560 hn         1 B5L       0.483133
     56 H38          6.7290     0.0640    -0.4860 hn         1 B5L       0.483133
@<TRIPOS>BOND
     1     1     2 1   
     2     1     9 1   
     3     1    19 1   
     4     1    20 1   
     5     2     3 1   
     6     2    21 1   
     7     2    22 1   
     8     3     4 1   
     9     3    23 1   
    10     3    24 1   
    11     4    18 1   
    12     4    25 1   
    13     4    26 1   
    14     5     6 1   
    15     5    27 1   
    16     5    28 1   
    17     5    29 1   
    18     6     7 1   
    19     6    30 1   
    20     6    31 1   
    21     7     8 1   
    22     7    32 1   
    23     7    33 1   
    24     8     9 1   
    25     8    34 1   
    26     8    35 1   
    27     9    10 1   
    28     9    14 1   
    29    10    11 1   
    30    10    36 1   
    31    10    37 1   
    32    11    12 1   
    33    11    38 1   
    34    11    39 1   
    35    12    13 1   
    36    12    40 1   
    37    12    41 1   
    38    13    42 1   
    39    13    43 1   
    40    13    44 1   
    41    14    15 1   
    42    14    45 1   
    43    14    46 1   
    44    15    16 1   
    45    15    47 1   
    46    15    48 1   
    47    16    17 1   
    48    16    49 1   
    49    16    50 1   
    50    17    51 1   
    51    17    52 1   
    52    17    53 1   
    53    18    54 1   
    54    18    55 1   
    55    18    56 1   
@<TRIPOS>SUBSTRUCTURE
     1 B5L         1 TEMP              0 ****  ****    0 ROOT
