@<TRIPOS>MOLECULE
B5N
   44    46     1     0     0
SMALL
No Charge or Current Charge


@<TRIPOS>ATOM
      1 C01          3.8320     0.0750     1.7730 ca         1 B5N      -0.072500
      2 C02          4.8120     1.0690     1.6010 ca         1 B5N      -0.155000
      3 C03          3.4710    -0.7580     0.6940 ca         1 B5N      -0.106300
      4 C04          5.4320     1.2320     0.3530 ca         1 B5N       0.172000
      5 C05          4.0990    -0.5870    -0.5560 ca         1 B5N      -0.072500
      6 C06          5.0790     0.4070    -0.7260 ca         1 B5N      -0.155000
      7 C08          2.4070    -1.8370     0.8720 c3         1 B5N       0.217100
      8 C10         -1.0170    -2.4930    -0.7640 c6         1 B5N       0.098000
      9 C11          0.2230    -2.7180     0.1420 c6         1 B5N       0.146800
     10 C13         -0.7470    -0.0340    -0.4300 c6         1 B5N       0.098000
     11 C14          0.4850    -0.3240     0.4680 c6         1 B5N       0.146800
     12 C15         -2.9730    -0.9670    -1.1210 c          1 B5N       0.618700
     13 C16         -3.7050     0.3100    -0.7740 ca         1 B5N      -0.140600
     14 C17         -4.5420     1.9840     0.7990 ca         1 B5N      -0.115000
     15 C18         -3.8600     0.7740     0.5630 ca         1 B5N      -0.045300
     16 C19         -5.0870     2.7220    -0.2640 ca         1 B5N      -0.096000
     17 C20         -4.9670     2.2470    -1.5770 ca         1 B5N      -0.117000
     18 C21         -4.2870     1.0460    -1.8290 ca         1 B5N      -0.078000
     19 C23         -3.3650    -0.0220     1.7700 c3         1 B5N      -0.054800
     20 F07          6.3730     2.1870     0.1890 f          1 B5N      -0.180000
     21 N09          1.1800    -1.5820     0.0810 n3         1 B5N      -0.719600
     22 N12         -1.6990    -1.1810    -0.5550 n          1 B5N      -0.408800
     23 O22         -3.5080    -1.8210    -1.8180 o          1 B5N      -0.596100
     24 H1           3.3520    -0.0460     2.7430 ha         1 B5N       0.122000
     25 H2           5.0900     1.7130     2.4320 ha         1 B5N       0.132000
     26 H3           3.8220    -1.2230    -1.3940 ha         1 B5N       0.122000
     27 H4           5.5630     0.5400    -1.6900 ha         1 B5N       0.132000
     28 H5           2.8480    -2.7960     0.5700 h1         1 B5N       0.041200
     29 H6           2.1550    -1.9270     1.9380 h1         1 B5N       0.041200
     30 H7          -0.7020    -2.5590    -1.8150 h1         1 B5N       0.062200
     31 H8          -1.7310    -3.3100    -0.5870 h1         1 B5N       0.062200
     32 H9          -0.1220    -2.8640     1.1770 h1         1 B5N       0.041950
     33 H10          0.7160    -3.6510    -0.1670 h1         1 B5N       0.041950
     34 H11         -1.2590     0.8560    -0.0400 h1         1 B5N       0.062200
     35 H12         -0.3880     0.2240    -1.4360 h1         1 B5N       0.062200
     36 H13          1.1680     0.5350     0.4000 h1         1 B5N       0.041950
     37 H14          0.1510    -0.3840     1.5150 h1         1 B5N       0.041950
     38 H15         -4.6640     2.3510     1.8160 ha         1 B5N       0.114000
     39 H16         -5.6150     3.6530    -0.0670 ha         1 B5N       0.115000
     40 H17         -5.3990     2.8110    -2.4010 ha         1 B5N       0.117000
     41 H18         -4.1950     0.6900    -2.8530 ha         1 B5N       0.120000
     42 H19         -2.3230     0.2190     2.0080 hc         1 B5N       0.047700
     43 H20         -3.9620     0.1990     2.6630 hc         1 B5N       0.047700
     44 H21         -3.4370    -1.1030     1.6030 hc         1 B5N       0.047700
@<TRIPOS>BOND
     1     1     2 ar  
     2     1     3 ar  
     3     1    24 1   
     4     2     4 ar  
     5     2    25 1   
     6     3     5 ar  
     7     3     7 1   
     8     4     6 ar  
     9     4    20 1   
    10     5     6 ar  
    11     5    26 1   
    12     6    27 1   
    13     7    21 1   
    14     7    28 1   
    15     7    29 1   
    16     8     9 1   
    17     8    22 1   
    18     8    30 1   
    19     8    31 1   
    20     9    21 1   
    21     9    32 1   
    22     9    33 1   
    23    10    11 1   
    24    10    22 1   
    25    10    34 1   
    26    10    35 1   
    27    11    21 1   
    28    11    36 1   
    29    11    37 1   
    30    12    13 1   
    31    12    22 1   
    32    12    23 2   
    33    13    15 ar  
    34    13    18 ar  
    35    14    15 ar  
    36    14    16 ar  
    37    14    38 1   
    38    15    19 1   
    39    16    17 ar  
    40    16    39 1   
    41    17    18 ar  
    42    17    40 1   
    43    18    41 1   
    44    19    42 1   
    45    19    43 1   
    46    19    44 1   
@<TRIPOS>SUBSTRUCTURE
     1 B5N         1 TEMP              0 ****  ****    0 ROOT
