@<TRIPOS>MOLECULE
B5N
   44    46     1     0     0
SMALL
abcg2


@<TRIPOS>ATOM
      1 C01          3.8070     0.0440     1.8380 ca         1 B5N      -0.072500
      2 C02          4.8350     0.9620     1.6590 ca         1 B5N      -0.155000
      3 C03          3.2770    -0.6650     0.7660 ca         1 B5N      -0.106300
      4 C04          5.3200     1.1640     0.3830 ca         1 B5N       0.172000
      5 C05          3.7920    -0.4300    -0.5080 ca         1 B5N      -0.072500
      6 C06          4.8160     0.4820    -0.7100 ca         1 B5N      -0.155000
      7 C08          2.1800    -1.6770     0.9670 c3         1 B5N       0.217100
      8 C10         -0.8980    -2.4430    -1.0210 c6         1 B5N       0.098000
      9 C11          0.1680    -2.6100     0.0460 c6         1 B5N       0.146800
     10 C13         -0.7070    -0.0380    -0.7690 c6         1 B5N       0.098000
     11 C14          0.3700    -0.2500     0.2800 c6         1 B5N       0.146800
     12 C15         -2.9390    -1.1230    -0.8220 c          1 B5N       0.618700
     13 C16         -3.5600     0.2260    -0.6050 ca         1 B5N      -0.140600
     14 C17         -4.4430     1.9120     0.8440 ca         1 B5N      -0.115000
     15 C18         -3.7920     0.6920     0.6930 ca         1 B5N      -0.045300
     16 C19         -4.8560     2.6520    -0.2560 ca         1 B5N      -0.096000
     17 C20         -4.6240     2.1760    -1.5380 ca         1 B5N      -0.117000
     18 C21         -3.9810     0.9580    -1.7090 ca         1 B5N      -0.078000
     19 C23         -3.3390    -0.0920     1.8900 c3         1 B5N      -0.054800
     20 F07          6.3110     2.0530     0.1950 f          1 B5N      -0.180000
     21 N09          1.0850    -1.4870     0.0360 n3         1 B5N      -0.719600
     22 N12         -1.5960    -1.1840    -0.8330 n          1 B5N      -0.408800
     23 O22         -3.6610    -2.1010    -0.9750 o          1 B5N      -0.596100
     24 H1           3.4120    -0.1150     2.8340 ha         1 B5N       0.122000
     25 H2           5.2400     1.5140     2.4960 ha         1 B5N       0.132000
     26 H3           3.3800    -0.9620    -1.3560 ha         1 B5N       0.122000
     27 H4           5.2150     0.6620    -1.7000 ha         1 B5N       0.132000
     28 H5           2.5820    -2.6810     0.8030 h1         1 B5N       0.041200
     29 H6           1.8410    -1.6480     2.0160 h1         1 B5N       0.041200
     30 H7          -0.4330    -2.4520    -2.0120 h1         1 B5N       0.062200
     31 H8          -1.6060    -3.2650    -0.9730 h1         1 B5N       0.062200
     32 H9          -0.3210    -2.7340     1.0280 h1         1 B5N       0.041950
     33 H10          0.7240    -3.5280    -0.1540 h1         1 B5N       0.041950
     34 H11         -1.2650     0.8680    -0.5450 h1         1 B5N       0.062200
     35 H12         -0.2350     0.1000    -1.7480 h1         1 B5N       0.062200
     36 H13          1.0640     0.5910     0.2300 h1         1 B5N       0.041950
     37 H14         -0.0840    -0.2360     1.2870 h1         1 B5N       0.041950
     38 H15         -4.6310     2.2900     1.8420 ha         1 B5N       0.114000
     39 H16         -5.3590     3.5990    -0.1090 ha         1 B5N       0.115000
     40 H17         -4.9410     2.7460    -2.4010 ha         1 B5N       0.117000
     41 H18         -3.7960     0.5820    -2.7080 ha         1 B5N       0.120000
     42 H19         -2.2500    -0.1290     1.9560 hc         1 B5N       0.047700
     43 H20         -3.7070     0.3530     2.8130 hc         1 B5N       0.047700
     44 H21         -3.6910    -1.1240     1.8550 hc         1 B5N       0.047700
@<TRIPOS>BOND
     1     1     2 ar  
     2     1     3 ar  
     3     1    24 1   
     4     2     4 ar  
     5     2    25 1   
     6     3     5 ar  
     7     3     7 1   
     8     4     6 ar  
     9     4    20 1   
    10     5     6 ar  
    11     5    26 1   
    12     6    27 1   
    13     7    21 1   
    14     7    28 1   
    15     7    29 1   
    16     8     9 1   
    17     8    22 1   
    18     8    30 1   
    19     8    31 1   
    20     9    21 1   
    21     9    32 1   
    22     9    33 1   
    23    10    11 1   
    24    10    22 1   
    25    10    34 1   
    26    10    35 1   
    27    11    21 1   
    28    11    36 1   
    29    11    37 1   
    30    12    13 1   
    31    12    22 1   
    32    12    23 2   
    33    13    15 ar  
    34    13    18 ar  
    35    14    15 ar  
    36    14    16 ar  
    37    14    38 1   
    38    15    19 1   
    39    16    17 ar  
    40    16    39 1   
    41    17    18 ar  
    42    17    40 1   
    43    18    41 1   
    44    19    42 1   
    45    19    43 1   
    46    19    44 1   
@<TRIPOS>SUBSTRUCTURE
     1 B5N         1 TEMP              0 ****  ****    0 ROOT
