@<TRIPOS>MOLECULE
B5O
   50    53     1     0     0
SMALL
No Charge or Current Charge


@<TRIPOS>ATOM
      1 C13         -1.1670     0.6200    -1.3580 ca         1 B5O       0.229000
      2 C15         -1.3420     1.1340     1.0040 ca         1 B5O       0.229000
      3 C20         -5.2260    -1.1420     0.6350 ca         1 B5O      -0.105300
      4 C21         -6.1370    -0.4850    -0.2130 ca         1 B5O      -0.048000
      5 C22         -5.6980     0.5550    -1.0480 ca         1 B5O      -0.157000
      6 C1           4.2290    -1.4260     0.1840 c6         1 B5O      -0.045700
      7 C2           5.5100    -0.6930    -0.3410 c6         1 B5O      -0.181400
      8 C3           5.5490     0.8180    -0.0270 c          1 B5O       0.511600
      9 O4           6.6100     1.3850     0.2150 o          1 B5O      -0.489100
     10 C5           4.2260     1.4940    -0.0230 cc         1 B5O       0.105500
     11 C6           3.0730     0.7930    -0.1920 cd         1 B5O      -0.111300
     12 C7           2.9480    -0.7060    -0.3470 c6         1 B5O      -0.013100
     13 N8           2.1320     1.7900    -0.1210 na         1 B5O       0.203000
     14 N9           2.6730     3.0190     0.1330 nd         1 B5O      -0.181800
     15 N10          3.9740     2.8340     0.1720 nc         1 B5O      -0.282000
     16 C11          0.7840     1.4330    -0.1460 ca         1 B5O       0.060800
     17 C12          0.1860     0.9890    -1.3390 ca         1 B5O      -0.169500
     18 C14         -1.9640     0.6870    -0.1880 cp         1 B5O      -0.112000
     19 C16          0.0100     1.5040     1.0260 ca         1 B5O      -0.169500
     20 F17         -2.0550     1.2250     2.1500 f          1 B5O      -0.155000
     21 C18         -3.4080     0.2910    -0.2050 cp         1 B5O      -0.091000
     22 C19         -3.8720    -0.7510     0.6350 ca         1 B5O      -0.037000
     23 C23         -4.3490     0.9400    -1.0440 ca         1 B5O       0.207000
     24 F24         -3.9630     1.9630    -1.8410 f          1 B5O      -0.169000
     25 O26         -5.5660    -3.5270     0.8830 oh         1 B5O      -0.654000
     26 F27         -1.6960     0.1720    -2.5190 f          1 B5O      -0.155000
     27 H211        -7.1850    -0.7800    -0.2230 ha         1 B5O       0.122000
     28 H221        -6.4030     1.0670    -1.6970 ha         1 B5O       0.138000
     29 H281         4.2470    -3.0720    -1.2460 hc         1 B5O       0.047700
     30 H011         4.2270    -1.3510     1.2810 hc         1 B5O       0.060700
     31 H022         6.4500    -1.1410     0.0030 hc         1 B5O       0.075200
     32 H021         5.4900    -0.7680    -1.4360 hc         1 B5O       0.075200
     33 H071         2.7870    -0.9570    -1.4050 hc         1 B5O       0.068200
     34 H072         2.0620    -1.0610     0.1970 hc         1 B5O       0.068200
     35 H121         0.7700     0.9230    -2.2530 ha         1 B5O       0.157500
     36 H161         0.4570     1.8450     1.9570 ha         1 B5O       0.157500
     37 H191        -3.1680    -1.2650     1.2850 ha         1 B5O       0.122000
     38 H251        -5.1040    -2.2570     2.4710 h1         1 B5O       0.027200
     39 H252        -6.7450    -2.0900     1.8280 h1         1 B5O       0.027200
     40 H261        -5.8860    -4.2110     1.5120 ho         1 B5O       0.444000
     41 H291         5.3960    -4.7920     0.1940 hc         1 B5O       0.036867
     42 H292         6.3930    -3.3760    -0.1190 hc         1 B5O       0.036867
     43 H293         5.5930    -3.5630     1.4600 hc         1 B5O       0.036867
     44 H302         2.8150    -3.5650     1.4150 hc         1 B5O       0.036867
     45 H303         2.0580    -3.3340    -0.1790 hc         1 B5O       0.036867
     46 H301         3.0200    -4.7760     0.1330 hc         1 B5O       0.036867
     47 C25         -5.6980    -2.2660     1.5470 c3         1 B5O       0.210900
     48 C28          4.2290    -2.9650    -0.1540 c3         1 B5O      -0.056700
     49 C29          5.4780    -3.7150     0.3790 c3         1 B5O      -0.091100
     50 C30          2.9530    -3.7000     0.3360 c3         1 B5O      -0.091100
@<TRIPOS>BOND
     1     1    17 ar  
     2     1    18 ar  
     3     1    26 1   
     4     2    18 ar  
     5     2    19 ar  
     6     2    20 1   
     7     3     4 ar  
     8     3    22 ar  
     9     3    47 1   
    10     4     5 ar  
    11     4    27 1   
    12     5    23 ar  
    13     5    28 1   
    14     6     7 1   
    15     6    12 1   
    16     6    30 1   
    17     6    48 1   
    18     7     8 1   
    19     7    31 1   
    20     7    32 1   
    21     8     9 2   
    22     8    10 1   
    23    10    11 2   
    24    10    15 1   
    25    11    12 1   
    26    11    13 1   
    27    12    33 1   
    28    12    34 1   
    29    13    14 1   
    30    13    16 1   
    31    14    15 2   
    32    16    17 ar  
    33    16    19 ar  
    34    17    35 1   
    35    18    21 1   
    36    19    36 1   
    37    21    22 ar  
    38    21    23 ar  
    39    22    37 1   
    40    23    24 1   
    41    25    40 1   
    42    25    47 1   
    43    29    48 1   
    44    38    47 1   
    45    39    47 1   
    46    41    49 1   
    47    42    49 1   
    48    43    49 1   
    49    44    50 1   
    50    45    50 1   
    51    46    50 1   
    52    48    49 1   
    53    48    50 1   
@<TRIPOS>SUBSTRUCTURE
     1 B5O         1 TEMP              0 ****  ****    0 ROOT
