@<TRIPOS>MOLECULE
B5O
   50    53     1     0     0
SMALL
bcc


@<TRIPOS>ATOM
      1 C13         -1.2020     0.0880    -1.0420 ca         1 B5O       0.193900
      2 C15         -1.5710     1.2850     0.9480 ca         1 B5O       0.193900
      3 C20         -5.5270    -0.8490     0.7320 ca         1 B5O      -0.105300
      4 C21         -6.2700    -0.3400    -0.3290 ca         1 B5O      -0.066000
      5 C22         -5.6780     0.4520    -1.3000 ca         1 B5O      -0.175000
      6 C1           4.4520    -1.4570     0.0640 c6         1 B5O      -0.045700
      7 C2           5.6140    -0.5360    -0.3440 c6         1 B5O      -0.181400
      8 C3           5.5060     0.8850     0.1600 c          1 B5O       0.511600
      9 O4           6.4660     1.5760     0.4270 o          1 B5O      -0.489100
     10 C5           4.1320     1.3570     0.2570 cc         1 B5O       0.170800
     11 C6           3.0540     0.5560    -0.0260 cd         1 B5O      -0.125900
     12 C7           3.1080    -0.8740    -0.4050 c6         1 B5O      -0.013100
     13 N8           2.0030     1.3650     0.1830 na         1 B5O       0.152300
     14 N9           2.4150     2.5880     0.5760 nd         1 B5O      -0.181800
     15 N10          3.6860     2.5840     0.6200 nc         1 B5O      -0.282000
     16 C11          0.6240     1.0890     0.0840 ca         1 B5O       0.060800
     17 C12          0.1510     0.3510    -0.9900 ca         1 B5O      -0.187500
     18 C14         -2.1070     0.5380    -0.0920 cp         1 B5O      -0.112000
     19 C16         -0.2260     1.5670     1.0700 ca         1 B5O      -0.187500
     20 F17         -2.4020     1.7460     1.8830 f          1 B5O      -0.119900
     21 C18         -3.5470     0.2280    -0.1690 cp         1 B5O      -0.091000
     22 C19         -4.1690    -0.5610     0.7950 ca         1 B5O      -0.055000
     23 C23         -4.3280     0.7210    -1.2020 ca         1 B5O       0.171900
     24 F24         -3.7520     1.5000    -2.1260 f          1 B5O      -0.133900
     25 O26         -6.1850    -3.0560     1.2550 oh         1 B5O      -0.591800
     26 F27         -1.6690    -0.6360    -2.0600 f          1 B5O      -0.119900
     27 H211        -7.3290    -0.5530    -0.3970 ha         1 B5O       0.140000
     28 H221        -6.2560     0.8610    -2.1190 ha         1 B5O       0.156000
     29 H281         4.7940    -2.8340    -1.5420 hc         1 B5O       0.047700
     30 H011         4.4190    -1.4990     1.1600 hc         1 B5O       0.060700
     31 H022         6.5710    -0.9340    -0.0090 hc         1 B5O       0.075200
     32 H021         5.6630    -0.4840    -1.4400 hc         1 B5O       0.075200
     33 H071         3.0140    -0.9730    -1.4930 hc         1 B5O       0.068200
     34 H072         2.2710    -1.4130     0.0390 hc         1 B5O       0.068200
     35 H121         0.8000     0.0040    -1.7820 ha         1 B5O       0.175500
     36 H161         0.1430     2.1350     1.9120 ha         1 B5O       0.175500
     37 H191        -3.5760    -0.9640     1.6070 ha         1 B5O       0.140000
     38 H251        -5.6090    -1.6710     2.6990 h1         1 B5O       0.027200
     39 H252        -7.1840    -1.3740     1.9640 h1         1 B5O       0.027200
     40 H261        -6.6210    -3.6130     1.9080 ho         1 B5O       0.405000
     41 H291         6.0170    -4.5580    -0.1950 hc         1 B5O       0.036867
     42 H292         6.8320    -3.0080    -0.1390 hc         1 B5O       0.036867
     43 H293         5.8630    -3.5420     1.2350 hc         1 B5O       0.036867
     44 H302         3.2180    -3.7940     0.8970 hc         1 B5O       0.036867
     45 H303         2.5630    -3.4650    -0.7090 hc         1 B5O       0.036867
     46 H301         3.6630    -4.8090    -0.4730 hc         1 B5O       0.036867
     47 C25         -6.1700    -1.7360     1.7590 c3         1 B5O       0.187700
     48 C28          4.6630    -2.8900    -0.4540 c3         1 B5O      -0.056700
     49 C29          5.9160    -3.5260     0.1440 c3         1 B5O      -0.091100
     50 C30          3.4560    -3.7820    -0.1700 c3         1 B5O      -0.091100
@<TRIPOS>BOND
     1     1    17 ar  
     2     1    18 ar  
     3     1    26 1   
     4     2    18 ar  
     5     2    19 ar  
     6     2    20 1   
     7     3     4 ar  
     8     3    22 ar  
     9     3    47 1   
    10     4     5 ar  
    11     4    27 1   
    12     5    23 ar  
    13     5    28 1   
    14     6     7 1   
    15     6    12 1   
    16     6    30 1   
    17     6    48 1   
    18     7     8 1   
    19     7    31 1   
    20     7    32 1   
    21     8     9 2   
    22     8    10 1   
    23    10    11 2   
    24    10    15 1   
    25    11    12 1   
    26    11    13 1   
    27    12    33 1   
    28    12    34 1   
    29    13    14 1   
    30    13    16 1   
    31    14    15 2   
    32    16    17 ar  
    33    16    19 ar  
    34    17    35 1   
    35    18    21 1   
    36    19    36 1   
    37    21    22 ar  
    38    21    23 ar  
    39    22    37 1   
    40    23    24 1   
    41    25    40 1   
    42    25    47 1   
    43    29    48 1   
    44    38    47 1   
    45    39    47 1   
    46    41    49 1   
    47    42    49 1   
    48    43    49 1   
    49    44    50 1   
    50    45    50 1   
    51    46    50 1   
    52    48    49 1   
    53    48    50 1   
@<TRIPOS>SUBSTRUCTURE
     1 B5O         1 TEMP              0 ****  ****    0 ROOT
