@<TRIPOS>MOLECULE
B5P
   55    58     1     0     0
SMALL
No Charge or Current Charge


@<TRIPOS>ATOM
      1 C1           4.9020    -4.8590     1.1810 c3         1 B5P      -0.089600
      2 C2           5.4720    -4.0670    -0.0200 c3         1 B5P      -0.055700
      3 C3           5.5570    -4.9640    -1.2760 c3         1 B5P      -0.089600
      4 C4           4.6740    -2.7690    -0.3190 c3         1 B5P      -0.094400
      5 C5           4.6740    -1.7350     0.8300 c3         1 B5P       0.109000
      6 C6           2.6410    -0.2790     0.7850 c          1 B5P       0.607200
      7 C7           2.0230     1.0170     0.3840 cc         1 B5P      -0.426800
      8 N1           3.9860    -0.4720     0.4600 n          1 B5P      -0.359300
      9 N2           4.0870     1.7080    -0.5380 na         1 B5P      -0.185400
     10 C8           2.7550     2.0050    -0.2660 cd         1 B5P       0.378000
     11 O2           2.2530     3.1810    -0.6910 oh         1 B5P      -0.434100
     12 N3           5.9160     0.5380    -0.5590 nc         1 B5P      -0.696000
     13 C9           4.9970     2.5340    -1.1750 cd         1 B5P      -0.259000
     14 C10          6.1310     1.7580    -1.1660 cc         1 B5P       0.319900
     15 C11          4.6460     0.5290    -0.1800 cd         1 B5P       0.591400
     16 C12          0.6370     1.2320     0.7630 ce         1 B5P       0.878500
     17 C13         -2.3010     1.2050     0.6070 ca         1 B5P      -0.337500
     18 C14         -1.5520     0.0580     0.5410 ca         1 B5P       0.368000
     19 C15         -2.1790    -1.1780     0.3430 ca         1 B5P      -0.152000
     20 O6          -8.0830    -0.5570    -0.5900 o          1 B5P      -0.527000
     21 S2          -6.7710    -1.2020    -0.5500 s6         1 B5P       1.189100
     22 O5          -6.5740    -2.4460     0.1960 o          1 B5P      -0.527000
     23 C18         -6.1760    -1.4040    -2.2150 c3         1 B5P      -0.382100
     24 C17         -4.3610    -0.0680     0.2610 ca         1 B5P       0.194000
     25 C19         -3.7050     1.1610     0.4740 ca         1 B5P      -0.003000
     26 S1          -1.4540     2.7190     0.9150 sy         1 B5P       1.244100
     27 O4          -1.9160     3.1930     2.2250 o          1 B5P      -0.541000
     28 O3          -1.6400     3.5490    -0.2800 o          1 B5P      -0.541000
     29 N4           0.1070     2.3680     1.0390 nf         1 B5P      -0.835300
     30 C16         -3.5790    -1.2450     0.2040 ca         1 B5P      -0.007000
     31 N5          -0.1960     0.1520     0.6620 nu         1 B5P      -0.936200
     32 H11          4.9680    -4.2780     2.1090 hc         1 B5P       0.035533
     33 H21          3.8510    -5.1220     1.0120 hc         1 B5P       0.035533
     34 H31          5.4660    -5.7870     1.3340 hc         1 B5P       0.035533
     35 H2           6.4990    -3.7750     0.2360 hc         1 B5P       0.047700
     36 H13          4.5590    -5.2950    -1.5880 hc         1 B5P       0.035533
     37 H23          6.0150    -4.4210    -2.1110 hc         1 B5P       0.035533
     38 H33          6.1680    -5.8530    -1.0780 hc         1 B5P       0.035533
     39 H14          5.0980    -2.2930    -1.2110 hc         1 B5P       0.054200
     40 H24          3.6370    -3.0280    -0.5650 hc         1 B5P       0.054200
     41 H15          4.2040    -2.1680     1.7220 h1         1 B5P       0.078700
     42 H25          5.7130    -1.5080     1.1060 h1         1 B5P       0.078700
     43 H12          2.9910     3.6650    -1.1030 ho         1 B5P       0.500000
     44 H9           4.8250     3.5310    -1.5650 h4         1 B5P       0.171000
     45 H10          7.1080     2.0030    -1.5630 h4         1 B5P       0.055100
     46 H15A        -1.5890    -2.0890     0.2930 ha         1 B5P       0.133000
     47 H118        -6.2160    -0.4240    -2.7000 h1         1 B5P       0.105367
     48 H218        -5.1500    -1.7800    -2.1630 h1         1 B5P       0.105367
     49 H318        -6.8360    -2.1210    -2.7130 h1         1 B5P       0.105367
     50 HN6         -6.2520     0.8100     0.0850 hn         1 B5P       0.493000
     51 H19         -4.2860     2.0790     0.5370 ha         1 B5P       0.132000
     52 H16         -4.0410    -2.2160     0.0590 ha         1 B5P       0.149000
     53 H22          0.3200    -0.7240     0.7340 hn         1 B5P       0.564000
     54 O1           2.0220    -1.1590     1.3650 o          1 B5P      -0.567000
     55 N6          -5.7580    -0.0740     0.1320 nu         1 B5P      -0.874100
@<TRIPOS>BOND
     1     1     2 1   
     2     1    32 1   
     3     1    33 1   
     4     1    34 1   
     5     2     3 1   
     6     2     4 1   
     7     2    35 1   
     8     3    36 1   
     9     3    37 1   
    10     3    38 1   
    11     4     5 1   
    12     4    39 1   
    13     4    40 1   
    14     5     8 1   
    15     5    41 1   
    16     5    42 1   
    17     6     7 1   
    18     6     8 1   
    19     6    54 2   
    20     7    10 2   
    21     7    16 1   
    22     8    15 1   
    23     9    10 1   
    24     9    13 1   
    25     9    15 1   
    26    10    11 1   
    27    11    43 1   
    28    12    14 1   
    29    12    15 2   
    30    13    14 2   
    31    13    44 1   
    32    14    45 1   
    33    16    29 2   
    34    16    31 1   
    35    17    18 ar  
    36    17    25 ar  
    37    17    26 1   
    38    18    19 ar  
    39    18    31 1   
    40    19    30 ar  
    41    19    46 1   
    42    20    21 2   
    43    21    22 2   
    44    21    23 1   
    45    21    55 1   
    46    23    47 1   
    47    23    48 1   
    48    23    49 1   
    49    24    25 ar  
    50    24    30 ar  
    51    24    55 1   
    52    25    51 1   
    53    26    27 2   
    54    26    28 2   
    55    26    29 1   
    56    30    52 1   
    57    31    53 1   
    58    50    55 1   
@<TRIPOS>SUBSTRUCTURE
     1 B5P         1 TEMP              0 ****  ****    0 ROOT
