@<TRIPOS>MOLECULE
B5P
   55    58     1     0     0
SMALL
abcg2


@<TRIPOS>ATOM
      1 C1           4.7210    -4.8600     0.9530 c3         1 B5P      -0.089600
      2 C2           5.4850    -3.9990    -0.0490 c3         1 B5P      -0.055700
      3 C3           5.7680    -4.7920    -1.3200 c3         1 B5P      -0.089600
      4 C4           4.7330    -2.7110    -0.3910 c3         1 B5P      -0.094400
      5 C5           4.5800    -1.7790     0.8020 c3         1 B5P       0.109000
      6 C6           2.5530    -0.4170     0.4890 c          1 B5P       0.607200
      7 C7           1.9480     0.8530     0.0920 cc         1 B5P      -0.426800
      8 N1           3.9210    -0.5230     0.4350 n          1 B5P      -0.359300
      9 N2           4.1110     1.6830    -0.3710 na         1 B5P      -0.185400
     10 C8           2.7660     1.8910    -0.3160 cd         1 B5P       0.378000
     11 O2           2.3210     3.0640    -0.6550 oh         1 B5P      -0.434100
     12 N3           5.9830     0.5170    -0.1480 nc         1 B5P      -0.696000
     13 C9           5.1520     2.5220    -0.7700 cd         1 B5P      -0.259000
     14 C10          6.2690     1.7770    -0.6180 cc         1 B5P       0.319900
     15 C11          4.6970     0.4960    -0.0120 cd         1 B5P       0.591400
     16 C12          0.4880     1.0240     0.1420 ce         1 B5P       0.878500
     17 C13         -2.3880     0.9990     0.2540 ca         1 B5P      -0.337500
     18 C14         -1.5980    -0.0570     0.6930 ca         1 B5P       0.368000
     19 C15         -2.2250    -1.2330     1.1130 ca         1 B5P      -0.152000
     20 O6          -7.9610    -1.2380    -0.2530 o          1 B5P      -0.527000
     21 S2          -6.5400    -1.3260    -0.5360 s6         1 B5P       1.189100
     22 O5          -5.8800    -2.6200    -0.5330 o          1 B5P      -0.527000
     23 C18         -6.2090    -0.5340    -2.0910 c3         1 B5P      -0.382100
     24 C17         -4.3830    -0.2750     0.6220 ca         1 B5P       0.194000
     25 C19         -3.7720     0.8890     0.1950 ca         1 B5P      -0.003000
     26 S1          -1.5970     2.5020    -0.1740 sy         1 B5P       1.244100
     27 O4          -1.7110     3.4210     0.9510 o          1 B5P      -0.541000
     28 O3          -2.1120     2.9700    -1.4520 o          1 B5P      -0.541000
     29 N4          -0.0480     2.0940    -0.3660 nf         1 B5P      -0.835300
     30 C16         -3.5980    -1.3330     1.0900 ca         1 B5P      -0.007000
     31 N5          -0.2230     0.0270     0.7040 nu         1 B5P      -0.936200
     32 H11          4.5580    -4.3530     1.9050 hc         1 B5P       0.035533
     33 H21          3.7420    -5.1360     0.5530 hc         1 B5P       0.035533
     34 H31          5.2620    -5.7830     1.1680 hc         1 B5P       0.035533
     35 H2           6.4470    -3.7200     0.3980 hc         1 B5P       0.047700
     36 H13          4.8360    -5.1000    -1.8020 hc         1 B5P       0.035533
     37 H23          6.3380    -4.2050    -2.0420 hc         1 B5P       0.035533
     38 H33          6.3380    -5.6960    -1.1000 hc         1 B5P       0.035533
     39 H14          5.2730    -2.1810    -1.1820 hc         1 B5P       0.054200
     40 H24          3.7460    -2.9620    -0.7920 hc         1 B5P       0.054200
     41 H15          3.9970    -2.2320     1.5990 h1         1 B5P       0.078700
     42 H25          5.5540    -1.5210     1.2140 h1         1 B5P       0.078700
     43 H12          3.0140     3.7080    -0.8560 ho         1 B5P       0.500000
     44 H9           5.0180     3.5300    -1.1210 h4         1 B5P       0.171000
     45 H10          7.2830     2.0800    -0.8270 h4         1 B5P       0.055100
     46 H15A        -1.6300    -2.0650     1.4680 ha         1 B5P       0.133000
     47 H118        -6.6320     0.4680    -2.0780 h1         1 B5P       0.105367
     48 H218        -5.1350    -0.4910    -2.2580 h1         1 B5P       0.105367
     49 H318        -6.6810    -1.1270    -2.8730 h1         1 B5P       0.105367
     50 HN6         -6.2920     0.4770     0.7910 hn         1 B5P       0.493000
     51 H19         -4.3680     1.7170    -0.1700 ha         1 B5P       0.132000
     52 H16         -4.0710    -2.2350     1.4490 ha         1 B5P       0.149000
     53 H22          0.3270    -0.7910     0.9860 hn         1 B5P       0.564000
     54 O1           1.9040    -1.3870     0.8770 o          1 B5P      -0.567000
     55 N6          -5.7930    -0.3920     0.6250 nu         1 B5P      -0.874100
@<TRIPOS>BOND
     1     1     2 1   
     2     1    32 1   
     3     1    33 1   
     4     1    34 1   
     5     2     3 1   
     6     2     4 1   
     7     2    35 1   
     8     3    36 1   
     9     3    37 1   
    10     3    38 1   
    11     4     5 1   
    12     4    39 1   
    13     4    40 1   
    14     5     8 1   
    15     5    41 1   
    16     5    42 1   
    17     6     7 1   
    18     6     8 1   
    19     6    54 2   
    20     7    10 2   
    21     7    16 1   
    22     8    15 1   
    23     9    10 1   
    24     9    13 1   
    25     9    15 1   
    26    10    11 1   
    27    11    43 1   
    28    12    14 1   
    29    12    15 2   
    30    13    14 2   
    31    13    44 1   
    32    14    45 1   
    33    16    29 2   
    34    16    31 1   
    35    17    18 ar  
    36    17    25 ar  
    37    17    26 1   
    38    18    19 ar  
    39    18    31 1   
    40    19    30 ar  
    41    19    46 1   
    42    20    21 2   
    43    21    22 2   
    44    21    23 1   
    45    21    55 1   
    46    23    47 1   
    47    23    48 1   
    48    23    49 1   
    49    24    25 ar  
    50    24    30 ar  
    51    24    55 1   
    52    25    51 1   
    53    26    27 2   
    54    26    28 2   
    55    26    29 1   
    56    30    52 1   
    57    31    53 1   
    58    50    55 1   
@<TRIPOS>SUBSTRUCTURE
     1 B5P         1 TEMP              0 ****  ****    0 ROOT
