@<TRIPOS>MOLECULE
B5Q
   54    58     1     0     0
SMALL
abcg2


@<TRIPOS>ATOM
      1 C1           0.6600    -1.5310     1.4540 ca         1 B5Q      -0.175000
      2 C2          -1.4410    -0.1280     1.6550 c          1 B5Q       0.511600
      3 O4          -1.2730     0.6600     2.5740 o          1 B5Q      -0.579100
      4 C7           1.4640    -0.4300     1.1040 ca         1 B5Q      -0.040000
      5 C9           2.5990    -2.9760     1.3220 ca         1 B5Q      -0.115000
      6 C11          2.8040    -0.5940     0.8510 cp         1 B5Q      -0.059000
      7 C12          3.3590    -1.8910     0.9790 ca         1 B5Q      -0.061000
      8 C13         -0.8210    -3.6960     2.0740 ca         1 B5Q       0.387900
      9 C15          3.6720     0.5490     0.4850 cp         1 B5Q      -0.032000
     10 C16         -2.9110     1.3810     0.4410 c5         1 B5Q       0.152300
     11 C19         -3.4550     1.2770    -0.9490 ca         1 B5Q      -0.104300
     12 C20         -4.1640     2.2240    -1.6710 ca         1 B5Q      -0.088500
     13 C21         -4.5670     1.9110    -2.9630 ca         1 B5Q      -0.105000
     14 C22         -4.2660     0.6720    -3.5200 ca         1 B5Q      -0.105000
     15 C24          4.7850     0.8200     1.2860 ca         1 B5Q      -0.102000
     16 C27          4.2730     2.4300    -0.8910 ca         1 B5Q      -0.089000
     17 C31          0.0770     1.8320    -2.2380 c3         1 B5Q       0.144100
     18 N3          -2.2150     0.1060     0.5970 n          1 B5Q      -0.403800
     19 C5          -0.7350    -1.4600     1.6860 ca         1 B5Q       0.142500
     20 C6           1.2150    -2.8250     1.5620 ca         1 B5Q       0.085000
     21 N8          -1.4610    -2.4950     1.9780 nb         1 B5Q      -0.219000
     22 N10          0.4630    -3.8970     1.8780 nb         1 B5Q      -0.254000
     23 N14         -1.6010    -4.7330     2.4180 nv         1 B5Q      -1.063900
     24 C17         -2.3920    -0.8040    -0.5360 c5         1 B5Q       0.152300
     25 C18         -3.1570     0.0430    -1.5040 ca         1 B5Q      -0.104300
     26 C23         -3.5570    -0.2750    -2.7910 ca         1 B5Q      -0.088500
     27 C25          5.6240     1.8860     1.0130 ca         1 B5Q      -0.107000
     28 C26          5.3630     2.7010    -0.0810 ca         1 B5Q      -0.110000
     29 C28          3.4220     1.3550    -0.6340 ca         1 B5Q      -0.076300
     30 C29          2.2810     1.1110    -1.5860 c3         1 B5Q       0.200100
     31 N30          1.2540     2.1290    -1.4470 n7         1 B5Q      -0.862400
     32 H1           1.0250     0.5580     1.0520 ha         1 B5Q       0.125000
     33 H2           3.0410    -3.9610     1.4020 ha         1 B5Q       0.134000
     34 H3           4.4160    -2.0270     0.7840 ha         1 B5Q       0.120000
     35 H4          -2.2210     2.2200     0.5610 h1         1 B5Q       0.067450
     36 H5          -3.6990     1.4960     1.1900 h1         1 B5Q       0.067450
     37 H6          -4.4000     3.1890    -1.2410 ha         1 B5Q       0.119500
     38 H7          -5.1200     2.6390    -3.5420 ha         1 B5Q       0.117000
     39 H8          -4.5860     0.4440    -4.5280 ha         1 B5Q       0.117000
     40 H9           4.9800     0.1930     2.1480 ha         1 B5Q       0.116000
     41 H10          4.0830     3.0540    -1.7560 ha         1 B5Q       0.122000
     42 H11         -0.3700     0.8500    -2.0270 h1         1 B5Q       0.029033
     43 H12         -0.6870     2.5910    -2.0730 h1         1 B5Q       0.029033
     44 H13          0.3320     1.8470    -3.2990 h1         1 B5Q       0.029033
     45 H14         -2.6000    -4.6240     2.4060 hn         1 B5Q       0.500500
     46 H15         -1.2330    -5.6670     2.3650 hn         1 B5Q       0.500500
     47 H16         -1.4310    -1.1310    -0.9420 h1         1 B5Q       0.067450
     48 H17         -2.9480    -1.6990    -0.2470 h1         1 B5Q       0.067450
     49 H18         -3.3220    -1.2400    -3.2240 ha         1 B5Q       0.119500
     50 H19          6.4750     2.0810     1.6530 ha         1 B5Q       0.114000
     51 H20          6.0110     3.5380    -0.3060 ha         1 B5Q       0.114000
     52 H21          2.6650     1.1640    -2.6100 h1         1 B5Q       0.039700
     53 H22          1.8900     0.0920    -1.4640 h1         1 B5Q       0.039700
     54 H23          0.9940     2.2220    -0.4740 hn         1 B5Q       0.413000
@<TRIPOS>BOND
     1     1     4 ar  
     2     1    19 ar  
     3     1    20 ar  
     4     2     3 2   
     5     2    18 1   
     6     2    19 1   
     7     4     6 ar  
     8     4    32 1   
     9     5     7 ar  
    10     5    20 ar  
    11     5    33 1   
    12     6     7 ar  
    13     6     9 1   
    14     7    34 1   
    15     8    21 ar  
    16     8    22 ar  
    17     8    23 1   
    18     9    15 ar  
    19     9    29 ar  
    20    10    11 1   
    21    10    18 1   
    22    10    35 1   
    23    10    36 1   
    24    11    12 ar  
    25    11    25 ar  
    26    12    13 ar  
    27    12    37 1   
    28    13    14 ar  
    29    13    38 1   
    30    14    26 ar  
    31    14    39 1   
    32    15    27 ar  
    33    15    40 1   
    34    16    28 ar  
    35    16    29 ar  
    36    16    41 1   
    37    17    31 1   
    38    17    42 1   
    39    17    43 1   
    40    17    44 1   
    41    18    24 1   
    42    19    21 ar  
    43    20    22 ar  
    44    23    45 1   
    45    23    46 1   
    46    24    25 1   
    47    24    47 1   
    48    24    48 1   
    49    25    26 ar  
    50    26    49 1   
    51    27    28 ar  
    52    27    50 1   
    53    28    51 1   
    54    29    30 1   
    55    30    31 1   
    56    30    52 1   
    57    30    53 1   
    58    31    54 1   
@<TRIPOS>SUBSTRUCTURE
     1 B5Q         1 TEMP              0 ****  ****    0 ROOT
