@<TRIPOS>MOLECULE
B5Q
   54    58     1     0     0
SMALL
No Charge or Current Charge


@<TRIPOS>ATOM
      1 C1           0.7090    -1.5470     1.4850 ca         1 B5Q      -0.175000
      2 C2          -1.3810    -0.0510     1.5860 c          1 B5Q       0.511600
      3 O4          -1.1050     0.8740     2.3430 o          1 B5Q      -0.579100
      4 C7           1.5380    -0.4560     1.1480 ca         1 B5Q      -0.040000
      5 C9           2.6400    -3.0210     1.3830 ca         1 B5Q      -0.115000
      6 C11          2.9170    -0.6330     0.8950 cp         1 B5Q      -0.059000
      7 C12          3.4580    -1.9320     1.0350 ca         1 B5Q      -0.061000
      8 C13         -0.8300    -3.6520     2.0720 ca         1 B5Q       0.387900
      9 C15          3.7850     0.5200     0.5050 cp         1 B5Q      -0.032000
     10 C16         -3.0950     1.4020     0.4110 c5         1 B5Q       0.152300
     11 C19         -3.5780     1.2480    -1.0070 ca         1 B5Q      -0.104300
     12 C20         -4.2550     2.2080    -1.7760 ca         1 B5Q      -0.088500
     13 C21         -4.6190     1.8860    -3.0990 ca         1 B5Q      -0.105000
     14 C22         -4.3020     0.6190    -3.6330 ca         1 B5Q      -0.105000
     15 C24          4.9570     0.7780     1.2590 ca         1 B5Q      -0.102000
     16 C27          4.3540     2.4420    -0.9100 ca         1 B5Q      -0.089000
     17 C31         -0.0280     1.9300    -2.0050 c3         1 B5Q       0.144100
     18 N3          -2.3920     0.0940     0.6160 n          1 B5Q      -0.403800
     19 C5          -0.6900    -1.3990     1.6830 ca         1 B5Q       0.142500
     20 C6           1.2620    -2.8450     1.5990 ca         1 B5Q       0.085000
     21 N8          -1.4580    -2.4740     1.9780 nb         1 B5Q      -0.219000
     22 N10          0.4750    -3.8980     1.9010 nb         1 B5Q      -0.254000
     23 N14         -1.6040    -4.7250     2.3700 nv         1 B5Q      -1.063900
     24 C17         -2.5320    -0.8540    -0.5390 c5         1 B5Q       0.152300
     25 C18         -3.2680     0.0090    -1.5290 ca         1 B5Q      -0.104300
     26 C23         -3.6200    -0.3300    -2.8450 ca         1 B5Q      -0.088500
     27 C25          5.8070     1.8490     0.9440 ca         1 B5Q      -0.107000
     28 C26          5.5030     2.6840    -0.1400 ca         1 B5Q      -0.110000
     29 C28          3.4890     1.3700    -0.6050 ca         1 B5Q      -0.076300
     30 C29          2.2870     1.1470    -1.5250 c3         1 B5Q       0.200100
     31 N30          1.2400     2.1610    -1.2870 n7         1 B5Q      -0.862400
     32 H1           1.1260     0.5440     1.0650 ha         1 B5Q       0.125000
     33 H2           3.0780    -4.0120     1.4720 ha         1 B5Q       0.134000
     34 H3           4.5180    -2.0960     0.8570 ha         1 B5Q       0.120000
     35 H4          -2.4130     2.2570     0.5070 h1         1 B5Q       0.067450
     36 H5          -3.9300     1.5270     1.1120 h1         1 B5Q       0.067450
     37 H6          -4.4940     3.1840    -1.3600 ha         1 B5Q       0.119500
     38 H7          -5.1440     2.6170    -3.7100 ha         1 B5Q       0.117000
     39 H8          -4.5830     0.3740    -4.6550 ha         1 B5Q       0.117000
     40 H9           5.2000     0.1410     2.1070 ha         1 B5Q       0.116000
     41 H10          4.1330     3.0910    -1.7550 ha         1 B5Q       0.122000
     42 H11         -0.4690     0.9660    -1.7180 h1         1 B5Q       0.029033
     43 H12         -0.7550     2.7180    -1.7700 h1         1 B5Q       0.029033
     44 H13          0.1320     1.9240    -3.0910 h1         1 B5Q       0.029033
     45 H14         -2.6150    -4.6340     2.2950 hn         1 B5Q       0.500500
     46 H15         -1.2180    -5.6580     2.2410 hn         1 B5Q       0.500500
     47 H16         -1.5580    -1.1720    -0.9350 h1         1 B5Q       0.067450
     48 H17         -3.1190    -1.7420    -0.2680 h1         1 B5Q       0.067450
     49 H18         -3.3710    -1.3080    -3.2520 ha         1 B5Q       0.119500
     50 H19          6.6980     2.0310     1.5400 ha         1 B5Q       0.114000
     51 H20          6.1600     3.5150    -0.3890 ha         1 B5Q       0.114000
     52 H21          2.6280     1.1990    -2.5680 h1         1 B5Q       0.039700
     53 H22          1.8880     0.1340    -1.3820 h1         1 B5Q       0.039700
     54 H23          1.0380     2.1730    -0.2810 hn         1 B5Q       0.413000
@<TRIPOS>BOND
     1     1     4 ar  
     2     1    19 ar  
     3     1    20 ar  
     4     2     3 2   
     5     2    18 1   
     6     2    19 1   
     7     4     6 ar  
     8     4    32 1   
     9     5     7 ar  
    10     5    20 ar  
    11     5    33 1   
    12     6     7 ar  
    13     6     9 1   
    14     7    34 1   
    15     8    21 ar  
    16     8    22 ar  
    17     8    23 1   
    18     9    15 ar  
    19     9    29 ar  
    20    10    11 1   
    21    10    18 1   
    22    10    35 1   
    23    10    36 1   
    24    11    12 ar  
    25    11    25 ar  
    26    12    13 ar  
    27    12    37 1   
    28    13    14 ar  
    29    13    38 1   
    30    14    26 ar  
    31    14    39 1   
    32    15    27 ar  
    33    15    40 1   
    34    16    28 ar  
    35    16    29 ar  
    36    16    41 1   
    37    17    31 1   
    38    17    42 1   
    39    17    43 1   
    40    17    44 1   
    41    18    24 1   
    42    19    21 ar  
    43    20    22 ar  
    44    23    45 1   
    45    23    46 1   
    46    24    25 1   
    47    24    47 1   
    48    24    48 1   
    49    25    26 ar  
    50    26    49 1   
    51    27    28 ar  
    52    27    50 1   
    53    28    51 1   
    54    29    30 1   
    55    30    31 1   
    56    30    52 1   
    57    30    53 1   
    58    31    54 1   
@<TRIPOS>SUBSTRUCTURE
     1 B5Q         1 TEMP              0 ****  ****    0 ROOT
