@<TRIPOS>MOLECULE
B5R
   41    42     1     0     0
SMALL
No Charge or Current Charge


@<TRIPOS>ATOM
      1 C21         -5.3220    -1.2510     0.5150 ca         1 B5R      -0.186000
      2 C20         -6.5570    -0.7280     0.9270 ca         1 B5R       0.219000
      3 F20         -7.5280    -1.5720     1.3440 f          1 B5R      -0.156000
      4 C19         -6.7830     0.6620     0.9060 ca         1 B5R       0.030000
      5 Cl19        -8.3300     1.3340     1.4210 cl         1 B5R      -0.166000
      6 C18         -5.7640     1.5250     0.4690 ca         1 B5R      -0.037000
      7 C17         -4.5240     1.0010     0.0550 ca         1 B5R      -0.211000
      8 C16         -4.3020    -0.3930     0.0780 ca         1 B5R       0.169100
      9 O14         -3.1100    -0.9620    -0.3150 os         1 B5R      -0.334100
     10 C13         -2.0010    -0.1720    -0.7930 c3         1 B5R       0.137600
     11 C11         -0.8320    -1.1290    -1.1590 c3         1 B5R       0.112000
     12 O11         -0.6080    -2.0210    -0.0360 oh         1 B5R      -0.647000
     13 C12         -1.1900    -2.0190    -2.3780 c3         1 B5R      -0.083100
     14 C10          0.4350    -0.2660    -1.4940 c          1 B5R       0.573100
     15 O10          0.4200     0.5920    -2.3710 o          1 B5R      -0.568100
     16 N9           1.5450    -0.5440    -0.7050 ns         1 B5R      -0.140000
     17 C6           2.8640    -0.0110    -0.6730 ca         1 B5R      -0.001000
     18 C5           3.7360    -0.4980     0.3180 ca         1 B5R      -0.128000
     19 C1           3.3330     0.9630    -1.5760 ca         1 B5R      -0.119000
     20 C2           4.6500     1.4380    -1.4800 ca         1 B5R      -0.050000
     21 C3           5.5230     0.9530    -0.4870 ca         1 B5R       0.004000
     22 C8           6.8620     1.4870    -0.4480 cg         1 B5R       0.311000
     23 N8           7.9440     1.9250    -0.4250 n1         1 B5R      -0.418000
     24 C4           5.0690    -0.0320     0.4330 ca         1 B5R      -0.132300
     25 C7           5.9930    -0.5920     1.5360 c3         1 B5R       0.359300
     26 F2           5.3890    -1.5190     2.3150 f          1 B5R      -0.105667
     27 F1           7.0900    -1.1900     1.0170 f          1 B5R      -0.105667
     28 F3           6.4250     0.3810     2.3710 f          1 B5R      -0.105667
     29 H21         -5.1570    -2.3240     0.5330 ha         1 B5R       0.151000
     30 H18         -5.9350     2.6000     0.4520 ha         1 B5R       0.133000
     31 H17         -3.7540     1.6920    -0.2770 ha         1 B5R       0.127000
     32 H13         -2.2900     0.4090    -1.6790 h1         1 B5R       0.058700
     33 H13A        -1.6660     0.5290    -0.0170 h1         1 B5R       0.058700
     34 HO11        -1.5000    -2.2650     0.3010 ho         1 B5R       0.456000
     35 H12         -1.4170    -1.4040    -3.2570 hc         1 B5R       0.062367
     36 H12A        -0.3520    -2.6800    -2.6340 hc         1 B5R       0.062367
     37 H12B        -2.0650    -2.6460    -2.1700 hc         1 B5R       0.062367
     38 HN9          1.3750    -1.2720    -0.0220 hn         1 B5R       0.177000
     39 H5           3.3610    -1.2520     1.0080 ha         1 B5R       0.136000
     40 H1           2.7000     1.3650    -2.3610 ha         1 B5R       0.158000
     41 H2           4.9950     2.1910    -2.1870 ha         1 B5R       0.136000
@<TRIPOS>BOND
     1     1     2 ar  
     2     1     8 ar  
     3     1    29 1   
     4     2     3 1   
     5     2     4 ar  
     6     4     5 1   
     7     4     6 ar  
     8     6     7 ar  
     9     6    30 1   
    10     7     8 ar  
    11     7    31 1   
    12     8     9 1   
    13     9    10 1   
    14    10    11 1   
    15    10    32 1   
    16    10    33 1   
    17    11    12 1   
    18    11    13 1   
    19    11    14 1   
    20    12    34 1   
    21    13    35 1   
    22    13    36 1   
    23    13    37 1   
    24    14    15 2   
    25    14    16 1   
    26    16    17 1   
    27    16    38 1   
    28    17    18 ar  
    29    17    19 ar  
    30    18    24 ar  
    31    18    39 1   
    32    19    20 ar  
    33    19    40 1   
    34    20    21 ar  
    35    20    41 1   
    36    21    22 1   
    37    21    24 ar  
    38    22    23 3   
    39    24    25 1   
    40    25    26 1   
    41    25    27 1   
    42    25    28 1   
@<TRIPOS>SUBSTRUCTURE
     1 B5R         1 TEMP              0 ****  ****    0 ROOT
