@<TRIPOS>MOLECULE
B5R
   41    42     1     0     0
SMALL
abcg2


@<TRIPOS>ATOM
      1 C21         -5.4130    -1.2830     0.1740 ca         1 B5R      -0.186000
      2 C20         -6.6830    -0.7960     0.3730 ca         1 B5R       0.219000
      3 F20         -7.6780    -1.6510     0.6130 f          1 B5R      -0.156000
      4 C19         -6.9600     0.5630     0.3320 ca         1 B5R       0.030000
      5 CL19        -8.5710     1.1170     0.5920 cl         1 B5R      -0.166000
      6 C18         -5.9230     1.4430     0.0810 ca         1 B5R      -0.037000
      7 C17         -4.6310     0.9800    -0.1240 ca         1 B5R      -0.211000
      8 C16         -4.3710    -0.3880    -0.0770 ca         1 B5R       0.169100
      9 O14         -3.1620    -0.9410    -0.2570 os         1 B5R      -0.334100
     10 C13         -2.0570    -0.1020    -0.5160 c3         1 B5R       0.137600
     11 C11         -0.8260    -1.0010    -0.6390 c3         1 B5R       0.112000
     12 O11         -0.6180    -1.7470     0.5360 oh         1 B5R      -0.647000
     13 C12         -0.9560    -2.0010    -1.7870 c3         1 B5R      -0.083100
     14 C10          0.3810    -0.1000    -0.9600 c          1 B5R       0.573100
     15 O10          0.2920     0.8320    -1.7340 o          1 B5R      -0.568100
     16 N9           1.5260    -0.4870    -0.3420 ns         1 B5R      -0.140000
     17 C6           2.8030     0.0330    -0.4700 ca         1 B5R      -0.001000
     18 C5           3.8220    -0.6520     0.2050 ca         1 B5R      -0.128000
     19 C1           3.1230     1.1710    -1.2100 ca         1 B5R      -0.119000
     20 C2           4.4360     1.6000    -1.2700 ca         1 B5R      -0.050000
     21 C3           5.4490     0.9190    -0.6040 ca         1 B5R       0.004000
     22 C8           6.7850     1.4060    -0.7060 cg         1 B5R       0.311000
     23 N8           7.8540     1.8260    -0.7910 n1         1 B5R      -0.418000
     24 C4           5.1270    -0.2220     0.1430 ca         1 B5R      -0.132300
     25 C7           6.2110    -0.9710     0.8620 c3         1 B5R       0.359300
     26 F2           5.7440    -2.0170     1.5410 f          1 B5R      -0.105667
     27 F1           7.1300    -1.4290     0.0040 f          1 B5R      -0.105667
     28 F3           6.8500    -0.1820     1.7330 f          1 B5R      -0.105667
     29 H21         -5.2280    -2.3490     0.2110 ha         1 B5R       0.151000
     30 H18         -6.1190     2.5060     0.0450 ha         1 B5R       0.133000
     31 H17         -3.8500     1.7030    -0.3150 ha         1 B5R       0.127000
     32 H13         -2.2040     0.4660    -1.4380 h1         1 B5R       0.058700
     33 H13A        -1.9150     0.6140     0.3030 h1         1 B5R       0.058700
     34 HO11        -0.7290    -1.1810     1.3090 ho         1 B5R       0.456000
     35 H12         -1.0910    -1.4850    -2.7360 hc         1 B5R       0.062367
     36 H12A        -0.0580    -2.6160    -1.8610 hc         1 B5R       0.062367
     37 H12B        -1.8070    -2.6610    -1.6290 hc         1 B5R       0.062367
     38 HN9          1.4320    -1.2860     0.2720 hn         1 B5R       0.177000
     39 H5           3.5650    -1.5340     0.7770 ha         1 B5R       0.136000
     40 H1           2.3680     1.7250    -1.7400 ha         1 B5R       0.158000
     41 H2           4.6760     2.4830    -1.8450 ha         1 B5R       0.136000
@<TRIPOS>BOND
     1     1     2 ar  
     2     1     8 ar  
     3     1    29 1   
     4     2     3 1   
     5     2     4 ar  
     6     4     5 1   
     7     4     6 ar  
     8     6     7 ar  
     9     6    30 1   
    10     7     8 ar  
    11     7    31 1   
    12     8     9 1   
    13     9    10 1   
    14    10    11 1   
    15    10    32 1   
    16    10    33 1   
    17    11    12 1   
    18    11    13 1   
    19    11    14 1   
    20    12    34 1   
    21    13    35 1   
    22    13    36 1   
    23    13    37 1   
    24    14    15 2   
    25    14    16 1   
    26    16    17 1   
    27    16    38 1   
    28    17    18 ar  
    29    17    19 ar  
    30    18    24 ar  
    31    18    39 1   
    32    19    20 ar  
    33    19    40 1   
    34    20    21 ar  
    35    20    41 1   
    36    21    22 1   
    37    21    24 ar  
    38    22    23 3   
    39    24    25 1   
    40    25    26 1   
    41    25    27 1   
    42    25    28 1   
@<TRIPOS>SUBSTRUCTURE
     1 B5R         1 TEMP              0 ****  ****    0 ROOT
