@<TRIPOS>MOLECULE
B5S
   56    58     1     0     0
SMALL
bcc


@<TRIPOS>ATOM
      1 C1           6.5900    -3.0700    -1.9890 c3         1 B5S       0.121700
      2 O2           5.3700    -2.3890    -1.7730 os         1 B5S      -0.314900
      3 C3           5.3350    -1.3880    -0.8760 ca         1 B5S       0.211100
      4 C4           6.4420    -0.9730    -0.1450 ca         1 B5S      -0.275000
      5 C5           6.2900     0.0900     0.7470 ca         1 B5S       0.213100
      6 O6           7.3880     0.4660     1.4300 oh         1 B5S      -0.485100
      7 C7           5.0630     0.7090     0.9250 ca         1 B5S      -0.322000
      8 C8           3.9580     0.2780     0.1830 ca         1 B5S       0.234600
      9 N9           2.7660     0.9650     0.3630 nu         1 B5S      -0.654000
     10 C10          1.4740     0.5460     0.1440 ca         1 B5S       0.258600
     11 C11          1.0950    -0.7970     0.0850 ca         1 B5S      -0.213000
     12 C12         -0.2370    -1.1150    -0.1080 ca         1 B5S      -0.029000
     13 C13         -1.2260    -0.1480    -0.2480 ca         1 B5S      -0.230600
     14 C14         -2.6360    -0.5360    -0.5320 c          1 B5S       0.705700
     15 O15         -3.3040    -0.0020    -1.3990 o          1 B5S      -0.581100
     16 N16         -3.0880    -1.5500     0.2560 ns         1 B5S      -0.471100
     17 C17         -4.3100    -2.2280     0.2190 ca         1 B5S       0.066600
     18 C18         -5.3110    -2.0110    -0.7300 ca         1 B5S      -0.170000
     19 C19         -6.4850    -2.7510    -0.6690 ca         1 B5S      -0.099500
     20 C20         -6.6900    -3.7040     0.3170 ca         1 B5S      -0.149000
     21 C21         -5.6920    -3.9190     1.2600 ca         1 B5S      -0.099500
     22 C22         -4.5160    -3.1910     1.2120 ca         1 B5S      -0.170000
     23 C23         -0.8440     1.2030    -0.1680 ca         1 B5S       0.215100
     24 O24         -1.8230     2.1130    -0.2630 os         1 B5S      -0.301900
     25 C25         -1.5120     3.4870    -0.1330 c3         1 B5S       0.156400
     26 C26         -2.8060     4.2570    -0.3140 c3         1 B5S      -0.115400
     27 C27         -2.5490     5.7420    -0.1540 c3         1 B5S       0.126800
     28 N28         -3.8030     6.5160    -0.3330 nz         1 B5S      -0.834600
     29 C32          0.4880     1.5370     0.0260 ca         1 B5S      -0.310000
     30 C33          4.0960    -0.7610    -0.7300 ca         1 B5S      -0.251000
     31 HN28        -4.2120     6.3730    -1.2560 hn         1 B5S       0.459800
     32 HN2A        -4.5120     6.2610     0.3540 hn         1 B5S       0.459800
     33 HN2B        -3.6390     7.5180    -0.2330 hn         1 B5S       0.459800
     34 H1           7.3660    -2.4040    -2.3770 h1         1 B5S       0.048033
     35 H1A          6.9580    -3.5480    -1.0780 h1         1 B5S       0.048033
     36 H1B          6.3870    -3.8390    -2.7300 h1         1 B5S       0.048033
     37 H4           7.4120    -1.4380    -0.2470 ha         1 B5S       0.161000
     38 HO6          7.1900     1.2180     2.0000 ho         1 B5S       0.429000
     39 H7           4.9520     1.5180     1.6380 ha         1 B5S       0.131000
     40 HN9          2.8630     1.9090     0.7020 hn         1 B5S       0.436800
     41 H11          1.8140    -1.5910     0.2110 ha         1 B5S       0.164000
     42 H12         -0.5070    -2.1630    -0.1640 ha         1 B5S       0.148000
     43 HN16        -2.4720    -1.8390     1.0000 hn         1 B5S       0.319500
     44 H18         -5.1880    -1.2770    -1.5080 ha         1 B5S       0.143000
     45 H19         -7.2520    -2.5700    -1.4110 ha         1 B5S       0.134000
     46 H20         -7.6100    -4.2710     0.3520 ha         1 B5S       0.139000
     47 H21         -5.8250    -4.6570     2.0390 ha         1 B5S       0.134000
     48 H22         -3.7450    -3.3700     1.9520 ha         1 B5S       0.143000
     49 H25         -1.0780     3.6910     0.8520 h1         1 B5S       0.045700
     50 H25A        -0.7820     3.7920    -0.8910 h1         1 B5S       0.045700
     51 H26         -3.2160     4.0540    -1.3060 hc         1 B5S       0.087700
     52 H26A        -3.5390     3.9260     0.4260 hc         1 B5S       0.087700
     53 H27         -2.1710     5.9840     0.8370 hx         1 B5S       0.105700
     54 H27A        -1.8430     6.1150    -0.8930 hx         1 B5S       0.105700
     55 H32          0.7950     2.5730     0.0900 ha         1 B5S       0.126000
     56 H33          3.2740    -1.0790    -1.3560 ha         1 B5S       0.158000
@<TRIPOS>BOND
     1     1     2 1   
     2     1    34 1   
     3     1    35 1   
     4     1    36 1   
     5     2     3 1   
     6     3     4 ar  
     7     3    30 ar  
     8     4     5 ar  
     9     4    37 1   
    10     5     6 1   
    11     5     7 ar  
    12     6    38 1   
    13     7     8 ar  
    14     7    39 1   
    15     8     9 1   
    16     8    30 ar  
    17     9    10 1   
    18     9    40 1   
    19    10    11 ar  
    20    10    29 ar  
    21    11    12 ar  
    22    11    41 1   
    23    12    13 ar  
    24    12    42 1   
    25    13    14 1   
    26    13    23 ar  
    27    14    15 2   
    28    14    16 1   
    29    16    17 1   
    30    16    43 1   
    31    17    18 ar  
    32    17    22 ar  
    33    18    19 ar  
    34    18    44 1   
    35    19    20 ar  
    36    19    45 1   
    37    20    21 ar  
    38    20    46 1   
    39    21    22 ar  
    40    21    47 1   
    41    22    48 1   
    42    23    24 1   
    43    23    29 ar  
    44    24    25 1   
    45    25    26 1   
    46    25    49 1   
    47    25    50 1   
    48    26    27 1   
    49    26    51 1   
    50    26    52 1   
    51    27    28 1   
    52    27    53 1   
    53    27    54 1   
    54    28    31 1   
    55    28    32 1   
    56    28    33 1   
    57    29    55 1   
    58    30    56 1   
@<TRIPOS>SUBSTRUCTURE
     1 B5S         1 TEMP              0 ****  ****    0 ROOT
