@<TRIPOS>MOLECULE
B5S
   56    58     1     0     0
SMALL
No Charge or Current Charge


@<TRIPOS>ATOM
      1 C1           6.6460    -3.1280    -2.0640 c3         1 B5S       0.144900
      2 O2           5.4240    -2.4200    -1.7890 os         1 B5S      -0.338100
      3 C3           5.3550    -1.4080    -0.8550 ca         1 B5S       0.211100
      4 C4           6.4710    -0.9880    -0.1060 ca         1 B5S      -0.257000
      5 C5           6.3360     0.0550     0.8140 ca         1 B5S       0.213100
      6 O6           7.4160     0.4630     1.5290 oh         1 B5S      -0.524100
      7 C7           5.0990     0.6810     1.0010 ca         1 B5S      -0.304000
      8 C8           3.9860     0.2530     0.2730 ca         1 B5S       0.373000
      9 N9           2.7780     0.9060     0.4750 nu         1 B5S      -0.986000
     10 C10          1.4490     0.5520     0.2780 ca         1 B5S       0.397000
     11 C11          1.0320    -0.7820     0.2880 ca         1 B5S      -0.195000
     12 C12         -0.3190    -1.1050     0.1030 ca         1 B5S      -0.011000
     13 C13         -1.2840    -0.0860    -0.0880 ca         1 B5S      -0.230600
     14 C14         -2.7430    -0.4520    -0.3020 c          1 B5S       0.638700
     15 O15         -3.5150     0.2630    -0.9290 o          1 B5S      -0.581100
     16 N16         -3.1120    -1.6930     0.2090 ns         1 B5S      -0.145000
     17 C17         -4.3450    -2.4030     0.2190 ca         1 B5S      -0.026000
     18 C18         -5.5750    -1.8450    -0.1970 ca         1 B5S      -0.152000
     19 C19         -6.7550    -2.6090    -0.1520 ca         1 B5S      -0.081500
     20 C20         -6.7200    -3.9340     0.3110 ca         1 B5S      -0.131000
     21 C21         -5.5040    -4.4950     0.7320 ca         1 B5S      -0.081500
     22 C22         -4.3260    -3.7310     0.6880 ca         1 B5S      -0.152000
     23 C23         -0.8560     1.2650    -0.0740 ca         1 B5S       0.215100
     24 O24         -1.7910     2.2720    -0.2080 os         1 B5S      -0.325100
     25 C25         -1.4450     3.6660    -0.2130 c3         1 B5S       0.179600
     26 C26         -2.7500     4.4620    -0.3980 c3         1 B5S      -0.115400
     27 C27         -2.5150     5.9800    -0.4240 c3         1 B5S       0.098600
     28 N28         -3.8140     6.7230    -0.6080 nz         1 B5S      -0.972000
     29 C32          0.5100     1.5700     0.1150 ca         1 B5S      -0.292000
     30 C33          4.1180    -0.7800    -0.6630 ca         1 B5S      -0.233000
     31 HN28        -4.3010     6.4890    -1.4870 hn         1 B5S       0.515000
     32 HN2A        -4.4980     6.5480     0.1450 hn         1 B5S       0.515000
     33 HN2B        -3.6930     7.7490    -0.6300 hn         1 B5S       0.515000
     34 H1           7.4220    -2.4420    -2.4270 h1         1 B5S       0.048033
     35 H1A          7.0150    -3.6340    -1.1630 h1         1 B5S       0.048033
     36 H1B          6.4790    -3.8890    -2.8360 h1         1 B5S       0.048033
     37 H4           7.4440    -1.4530    -0.2290 ha         1 B5S       0.143000
     38 HO6          7.1310     1.1940     2.1160 ho         1 B5S       0.468000
     39 H7           4.9980     1.4910     1.7180 ha         1 B5S       0.113000
     40 HN9          2.8900     1.8470     0.8460 hn         1 B5S       0.492000
     41 H11          1.7520    -1.5770     0.4530 ha         1 B5S       0.146000
     42 H12         -0.5960    -2.1570     0.0950 ha         1 B5S       0.130000
     43 HN16        -2.3640    -2.1790     0.6840 hn         1 B5S       0.153000
     44 H18         -5.6430    -0.8210    -0.5490 ha         1 B5S       0.125000
     45 H19         -7.6980    -2.1720    -0.4740 ha         1 B5S       0.116000
     46 H20         -7.6330    -4.5240     0.3450 ha         1 B5S       0.121000
     47 H21         -5.4750    -5.5210     1.0940 ha         1 B5S       0.116000
     48 H22         -3.3900    -4.1790     1.0180 ha         1 B5S       0.125000
     49 H25         -0.9710     3.9530     0.7360 h1         1 B5S       0.045700
     50 H25A        -0.7560     3.8930    -1.0370 h1         1 B5S       0.045700
     51 H26         -3.2270     4.1490    -1.3350 hc         1 B5S       0.087700
     52 H26A        -3.4380     4.2120     0.4190 hc         1 B5S       0.087700
     53 H27         -2.0480     6.2950     0.5160 hx         1 B5S       0.105700
     54 H27A        -1.8350     6.2310    -1.2470 hx         1 B5S       0.105700
     55 H32          0.8570     2.5960     0.1330 ha         1 B5S       0.108000
     56 H33          3.2700    -1.0890    -1.2630 ha         1 B5S       0.140000
@<TRIPOS>BOND
     1     1     2 1   
     2     1    34 1   
     3     1    35 1   
     4     1    36 1   
     5     2     3 1   
     6     3     4 ar  
     7     3    30 ar  
     8     4     5 ar  
     9     4    37 1   
    10     5     6 1   
    11     5     7 ar  
    12     6    38 1   
    13     7     8 ar  
    14     7    39 1   
    15     8     9 1   
    16     8    30 ar  
    17     9    10 1   
    18     9    40 1   
    19    10    11 ar  
    20    10    29 ar  
    21    11    12 ar  
    22    11    41 1   
    23    12    13 ar  
    24    12    42 1   
    25    13    14 1   
    26    13    23 ar  
    27    14    15 2   
    28    14    16 1   
    29    16    17 1   
    30    16    43 1   
    31    17    18 ar  
    32    17    22 ar  
    33    18    19 ar  
    34    18    44 1   
    35    19    20 ar  
    36    19    45 1   
    37    20    21 ar  
    38    20    46 1   
    39    21    22 ar  
    40    21    47 1   
    41    22    48 1   
    42    23    24 1   
    43    23    29 ar  
    44    24    25 1   
    45    25    26 1   
    46    25    49 1   
    47    25    50 1   
    48    26    27 1   
    49    26    51 1   
    50    26    52 1   
    51    27    28 1   
    52    27    53 1   
    53    27    54 1   
    54    28    31 1   
    55    28    32 1   
    56    28    33 1   
    57    29    55 1   
    58    30    56 1   
@<TRIPOS>SUBSTRUCTURE
     1 B5S         1 TEMP              0 ****  ****    0 ROOT
