@<TRIPOS>MOLECULE
B5T
   39    42     1     0     0
SMALL
No Charge or Current Charge


@<TRIPOS>ATOM
      1 CAG          1.5100     0.5650     0.6530 ca         1 B5T      -0.128500
      2 CAF          2.8090     1.0980     0.6030 ca         1 B5T      -0.005500
      3 CAE          3.8600     0.3430     0.0470 ca         1 B5T      -0.274500
      4 SAB          5.5200     1.0240    -0.0170 sy         1 B5T       1.128600
      5 OAC          6.3410     0.2590    -0.9520 o          1 B5T      -0.544000
      6 OAD          5.4770     2.4860    -0.0070 o          1 B5T      -0.544000
      7 NAA          6.1090     0.6050     1.4500 n8         1 B5T      -1.007100
      8 CAJ          3.5990    -0.9480    -0.4560 ca         1 B5T      -0.005500
      9 CAI          2.2960    -1.4730    -0.4010 ca         1 B5T      -0.128500
     10 CAH          1.2250    -0.7300     0.1530 cp         1 B5T       0.035000
     11 CAK         -0.1610    -1.2920     0.2100 cp         1 B5T      -0.136000
     12 CAS         -1.3040    -0.4620     0.0810 ca         1 B5T      -0.008000
     13 CAR         -2.5660    -1.0750     0.1570 ca         1 B5T      -0.125800
     14 CAL         -0.3880    -2.6870     0.3830 ca         1 B5T       0.376900
     15 NAM         -1.6170    -3.2620     0.4130 nb         1 B5T      -0.678000
     16 CAN         -2.6740    -2.4420     0.2920 ca         1 B5T       0.372500
     17 NAO         -4.0110    -2.7670     0.2330 na         1 B5T      -0.317400
     18 CAP         -4.8160    -1.6270     0.0370 cc         1 B5T      -0.133100
     19 CAQ         -3.9270    -0.5620     0.0430 cd         1 B5T      -0.078400
     20 CAT         -4.3230     0.8520    -0.1580 ca         1 B5T      -0.058800
     21 CAY         -5.5640     1.1590    -0.7560 ca         1 B5T      -0.075000
     22 CAX         -5.9230     2.5070    -0.9250 ca         1 B5T      -0.160000
     23 CAW         -5.0510     3.5120    -0.4800 ca         1 B5T       0.332900
     24 NAV         -3.8730     3.2400     0.1230 nb         1 B5T      -0.663000
     25 CAU         -3.5270     1.9390     0.2780 ca         1 B5T       0.340900
     26 H1           0.7190     1.1620     1.1000 ha         1 B5T       0.121500
     27 H2           2.9940     2.0950     1.0010 ha         1 B5T       0.138000
     28 H3           5.5030    -0.1670     1.7140 hn         1 B5T       0.474000
     29 H4           6.9800     0.1510     1.1840 hn         1 B5T       0.474000
     30 H5           4.3960    -1.5460    -0.8950 ha         1 B5T       0.138000
     31 H6           2.1180    -2.4650    -0.8080 ha         1 B5T       0.121500
     32 H7          -1.1880     0.5980    -0.1170 ha         1 B5T       0.130000
     33 H8           0.4510    -3.3720     0.4980 h4         1 B5T       0.024100
     34 H9          -4.3480    -3.7190     0.3020 hn         1 B5T       0.366000
     35 H10         -5.8980    -1.6680    -0.0550 h4         1 B5T       0.220000
     36 H11         -6.2320     0.3770    -1.1060 ha         1 B5T       0.116000
     37 H12         -6.8650     2.7750    -1.3950 ha         1 B5T       0.124000
     38 H13         -5.3070     4.5640    -0.5990 h4         1 B5T       0.020100
     39 H14         -2.6050     1.7770     0.8300 h4         1 B5T       0.019100
@<TRIPOS>BOND
     1     1     2 ar  
     2     1    10 ar  
     3     1    26 1   
     4     2     3 ar  
     5     2    27 1   
     6     3     4 1   
     7     3     8 ar  
     8     4     5 2   
     9     4     6 2   
    10     4     7 1   
    11     7    28 1   
    12     7    29 1   
    13     8     9 ar  
    14     8    30 1   
    15     9    10 ar  
    16     9    31 1   
    17    10    11 1   
    18    11    12 ar  
    19    11    14 ar  
    20    12    13 ar  
    21    12    32 1   
    22    13    16 ar  
    23    13    19 1   
    24    14    15 ar  
    25    14    33 1   
    26    15    16 ar  
    27    16    17 1   
    28    17    18 1   
    29    17    34 1   
    30    18    19 2   
    31    18    35 1   
    32    19    20 1   
    33    20    21 ar  
    34    20    25 ar  
    35    21    22 ar  
    36    21    36 1   
    37    22    23 ar  
    38    22    37 1   
    39    23    24 ar  
    40    23    38 1   
    41    24    25 ar  
    42    25    39 1   
@<TRIPOS>SUBSTRUCTURE
     1 B5T         1 TEMP              0 ****  ****    0 ROOT
