@<TRIPOS>MOLECULE
B5T
   39    42     1     0     0
SMALL
abcg2


@<TRIPOS>ATOM
      1 CAG          1.5370     0.4280     0.7010 ca         1 B5T      -0.128500
      2 CAF          2.8280     0.9170     0.6470 ca         1 B5T      -0.005500
      3 CAE          3.8080     0.1730     0.0010 ca         1 B5T      -0.274500
      4 SAB          5.4520     0.8190    -0.0790 sy         1 B5T       1.128600
      5 OAC          6.2290    -0.0340    -0.9680 o          1 B5T      -0.544000
      6 OAD          5.3960     2.2450    -0.3680 o          1 B5T      -0.544000
      7 NAA          5.9180     0.6990     1.4990 n8         1 B5T      -1.007100
      8 CAJ          3.5070    -1.0420    -0.5930 ca         1 B5T      -0.005500
      9 CAI          2.2070    -1.5180    -0.5370 ca         1 B5T      -0.128500
     10 CAH          1.2040    -0.7950     0.1100 cp         1 B5T       0.035000
     11 CAK         -0.1770    -1.3010     0.1700 cp         1 B5T      -0.136000
     12 CAS         -1.2640    -0.4420     0.0500 ca         1 B5T      -0.008000
     13 CAR         -2.5430    -0.9800     0.1260 ca         1 B5T      -0.125800
     14 CAL         -0.4190    -2.6740     0.3610 ca         1 B5T       0.376900
     15 NAM         -1.6200    -3.2200     0.4210 nb         1 B5T      -0.678000
     16 CAN         -2.6330    -2.3800     0.2980 ca         1 B5T       0.372500
     17 NAO         -3.9510    -2.7120     0.3020 na         1 B5T      -0.317400
     18 CAP         -4.6980    -1.5850     0.1380 cc         1 B5T      -0.133100
     19 CAQ         -3.8860    -0.4850     0.0250 cd         1 B5T      -0.078400
     20 CAT         -4.3310     0.8930    -0.1580 ca         1 B5T      -0.058800
     21 CAY         -5.4720     1.2060    -0.8970 ca         1 B5T      -0.075000
     22 CAX         -5.8610     2.5280    -1.0230 ca         1 B5T      -0.160000
     23 CAW         -5.0870     3.5100    -0.4200 ca         1 B5T       0.332900
     24 NAV         -3.9960     3.2330     0.2850 nb         1 B5T      -0.663000
     25 CAU         -3.6400     1.9640     0.4140 ca         1 B5T       0.340900
     26 H1           0.7830     0.9980     1.2290 ha         1 B5T       0.121500
     27 H2           3.0640     1.8620     1.1170 ha         1 B5T       0.138000
     28 H3           6.1250    -0.2550     1.7780 hn         1 B5T       0.474000
     29 H4           6.7070     1.3070     1.7030 hn         1 B5T       0.474000
     30 H5           4.2660    -1.6160    -1.1060 ha         1 B5T       0.138000
     31 H6           1.9720    -2.4540    -1.0260 ha         1 B5T       0.121500
     32 H7          -1.1070     0.6160    -0.1270 ha         1 B5T       0.130000
     33 H8           0.4180    -3.3520     0.4860 h4         1 B5T       0.024100
     34 H9          -4.3170    -3.6430     0.4200 hn         1 B5T       0.366000
     35 H10         -5.7750    -1.6410     0.1340 h4         1 B5T       0.220000
     36 H11         -6.0420     0.4230    -1.3820 ha         1 B5T       0.116000
     37 H12         -6.7420     2.7980    -1.5890 ha         1 B5T       0.124000
     38 H13         -5.3590     4.5550    -0.5100 h4         1 B5T       0.020100
     39 H14         -2.7610     1.7780     1.0230 h4         1 B5T       0.019100
@<TRIPOS>BOND
     1     1     2 ar  
     2     1    10 ar  
     3     1    26 1   
     4     2     3 ar  
     5     2    27 1   
     6     3     4 1   
     7     3     8 ar  
     8     4     5 2   
     9     4     6 2   
    10     4     7 1   
    11     7    28 1   
    12     7    29 1   
    13     8     9 ar  
    14     8    30 1   
    15     9    10 ar  
    16     9    31 1   
    17    10    11 1   
    18    11    12 ar  
    19    11    14 ar  
    20    12    13 ar  
    21    12    32 1   
    22    13    16 ar  
    23    13    19 1   
    24    14    15 ar  
    25    14    33 1   
    26    15    16 ar  
    27    16    17 1   
    28    17    18 1   
    29    17    34 1   
    30    18    19 2   
    31    18    35 1   
    32    19    20 1   
    33    20    21 ar  
    34    20    25 ar  
    35    21    22 ar  
    36    21    36 1   
    37    22    23 ar  
    38    22    37 1   
    39    23    24 ar  
    40    23    38 1   
    41    24    25 ar  
    42    25    39 1   
@<TRIPOS>SUBSTRUCTURE
     1 B5T         1 TEMP              0 ****  ****    0 ROOT
