@<TRIPOS>MOLECULE
B5U
   69    72     1     0     0
SMALL
No Charge or Current Charge


@<TRIPOS>ATOM
      1 C1           9.7730     4.3470     0.1990 c3         1 B5U      -0.047800
      2 C2           8.5860     3.3870     0.1970 ca         1 B5U      -0.065300
      3 C3           7.3450     3.8240     0.6920 ca         1 B5U      -0.109000
      4 C4           6.2340     2.9660     0.7040 ca         1 B5U      -0.102000
      5 C5           6.3250     1.6350     0.2190 cp         1 B5U      -0.128500
      6 C6           7.5900     1.2110    -0.2740 ca         1 B5U      -0.079000
      7 C7           8.7100     2.0670    -0.2900 ca         1 B5U      -0.078300
      8 C8          10.0380     1.5490    -0.8370 c3         1 B5U      -0.046800
      9 C9           5.1330     0.7090     0.2280 cp         1 B5U       0.290500
     10 C10          3.7800     1.1750     0.3420 ca         1 B5U       0.383900
     11 N11          2.6960     0.3500     0.3460 nb         1 B5U      -0.727000
     12 C12          2.9590    -0.9660     0.2260 ca         1 B5U       0.624900
     13 C13          4.3000    -1.4700     0.1260 ca         1 B5U       0.167500
     14 N14          5.3870    -0.6240     0.1190 nb         1 B5U      -0.618000
     15 C15          4.5460    -2.9720     0.0410 c          1 B5U       0.531600
     16 O16          3.6620    -3.8170     0.1040 o          1 B5U      -0.645100
     17 N17          5.8280    -3.3850    -0.0990 nt         1 B5U      -0.571000
     18 N18          1.8260    -1.7760     0.2480 nu         1 B5U      -0.917900
     19 C19          0.4400    -1.5730     0.2580 ca         1 B5U       0.269000
     20 C20         -0.3750    -2.5660     0.8320 ca         1 B5U      -0.111500
     21 C21         -1.7750    -2.4230     0.8520 ca         1 B5U      -0.144500
     22 C22         -2.3810    -1.2900     0.2870 ca         1 B5U       0.119100
     23 C23         -1.5740    -0.2980    -0.3090 ca         1 B5U      -0.144500
     24 C24         -0.1730    -0.4450    -0.3250 ca         1 B5U      -0.111500
     25 O25         -3.7570    -1.2030     0.3340 os         1 B5U      -0.349100
     26 C26         -4.4730    -0.0840    -0.2170 c3         1 B5U       0.165600
     27 C27         -5.9740    -0.3270     0.0210 c3         1 B5U      -0.084400
     28 C28         -6.8480     0.8210    -0.5270 c3         1 B5U       0.174800
     29 N29         -8.3090     0.5740    -0.4640 n3         1 B5U      -0.723600
     30 C30         -9.0880     1.6190    -1.1990 c6         1 B5U       0.166300
     31 C31        -10.6280     1.3490    -1.1750 c6         1 B5U       0.165800
     32 N32        -11.1570     1.2140     0.2160 n3         1 B5U      -0.721600
     33 C33        -10.3860     0.1690     0.9560 c6         1 B5U       0.165800
     34 C34         -8.8450     0.4340     0.9300 c6         1 B5U       0.166300
     35 C35        -12.6170     0.9820     0.2530 c3         1 B5U       0.156100
     36 H11C        10.5970     3.9560     0.8070 hc         1 B5U       0.042700
     37 H12C        10.1500     4.5110    -0.8180 hc         1 B5U       0.042700
     38 H13C         9.5040     5.3280     0.6080 hc         1 B5U       0.042700
     39 H3           7.2360     4.8360     1.0750 ha         1 B5U       0.112000
     40 H4           5.3010     3.3460     1.1110 ha         1 B5U       0.111000
     41 H6           7.7020     0.2010    -0.6590 ha         1 B5U       0.120000
     42 H81C        10.8230     1.5900    -0.0720 hc         1 B5U       0.042033
     43 H82C         9.9650     0.5070    -1.1720 hc         1 B5U       0.042033
     44 H83C        10.3710     2.1440    -1.6950 hc         1 B5U       0.042033
     45 H10          3.5580     2.2370     0.4180 h4         1 B5U       0.031100
     46 H18          2.1060    -2.7630     0.3030 hn         1 B5U       0.547000
     47 H171         6.5650    -2.6940    -0.1400 hn         1 B5U       0.330500
     48 H172         6.0350    -4.3700    -0.1530 hn         1 B5U       0.330500
     49 H20          0.0770    -3.4500     1.2750 ha         1 B5U       0.133000
     50 H24          0.4270     0.3180    -0.8110 ha         1 B5U       0.133000
     51 H21         -2.3920    -3.1940     1.3060 ha         1 B5U       0.121500
     52 H23         -2.0100     0.5860    -0.7670 ha         1 B5U       0.121500
     53 H261        -4.1710     0.8500     0.2750 h1         1 B5U       0.031200
     54 H262        -4.2820     0.0060    -1.2940 h1         1 B5U       0.031200
     55 H271        -6.2670    -1.2650    -0.4640 hc         1 B5U       0.062200
     56 H272        -6.1430    -0.4430     1.0970 hc         1 B5U       0.062200
     57 H281        -6.6000     1.7440     0.0160 h1         1 B5U       0.028700
     58 H282        -6.5600     0.9820    -1.5760 h1         1 B5U       0.028700
     59 H301        -8.9010     2.6090    -0.7580 h1         1 B5U       0.037700
     60 H302        -8.7610     1.6690    -2.2480 h1         1 B5U       0.037700
     61 H341        -8.3530    -0.3970     1.4550 h1         1 B5U       0.037700
     62 H342        -8.6370     1.3470     1.5070 h1         1 B5U       0.037700
     63 H311       -11.1360     2.1720    -1.6980 h1         1 B5U       0.037700
     64 H312       -10.8300     0.4310    -1.7470 h1         1 B5U       0.037700
     65 H331       -10.7160     0.1240     2.0040 h1         1 B5U       0.037700
     66 H332       -10.5760    -0.8210     0.5160 h1         1 B5U       0.037700
     67 H351       -12.8760     0.0360    -0.2410 h1         1 B5U       0.029700
     68 H352       -12.9760     0.9390     1.2900 h1         1 B5U       0.029700
     69 H353       -13.1510     1.7950    -0.2570 h1         1 B5U       0.029700
@<TRIPOS>BOND
     1     1     2 1   
     2     1    36 1   
     3     1    37 1   
     4     1    38 1   
     5     2     3 ar  
     6     2     7 ar  
     7     3     4 ar  
     8     3    39 1   
     9     4     5 ar  
    10     4    40 1   
    11     5     6 ar  
    12     5     9 1   
    13     6     7 ar  
    14     6    41 1   
    15     7     8 1   
    16     8    42 1   
    17     8    43 1   
    18     8    44 1   
    19     9    10 ar  
    20     9    14 ar  
    21    10    11 ar  
    22    10    45 1   
    23    11    12 ar  
    24    12    13 ar  
    25    12    18 1   
    26    13    14 ar  
    27    13    15 1   
    28    15    16 2   
    29    15    17 1   
    30    17    47 1   
    31    17    48 1   
    32    18    19 1   
    33    18    46 1   
    34    19    20 ar  
    35    19    24 ar  
    36    20    21 ar  
    37    20    49 1   
    38    21    22 ar  
    39    21    51 1   
    40    22    23 ar  
    41    22    25 1   
    42    23    24 ar  
    43    23    52 1   
    44    24    50 1   
    45    25    26 1   
    46    26    27 1   
    47    26    53 1   
    48    26    54 1   
    49    27    28 1   
    50    27    55 1   
    51    27    56 1   
    52    28    29 1   
    53    28    57 1   
    54    28    58 1   
    55    29    30 1   
    56    29    34 1   
    57    30    31 1   
    58    30    59 1   
    59    30    60 1   
    60    31    32 1   
    61    31    63 1   
    62    31    64 1   
    63    32    33 1   
    64    32    35 1   
    65    33    34 1   
    66    33    65 1   
    67    33    66 1   
    68    34    61 1   
    69    34    62 1   
    70    35    67 1   
    71    35    68 1   
    72    35    69 1   
@<TRIPOS>SUBSTRUCTURE
     1 B5U         1 TEMP              0 ****  ****    0 ROOT
