@<TRIPOS>MOLECULE
B5U
   69    72     1     0     0
SMALL
abcg2


@<TRIPOS>ATOM
      1 C1           9.4880     4.2960     0.1100 c3         1 B5U      -0.047800
      2 C2           8.3160     3.3630     0.0980 ca         1 B5U      -0.065300
      3 C3           7.0350     3.8360     0.3590 ca         1 B5U      -0.109000
      4 C4           5.9350     2.9940     0.3610 ca         1 B5U      -0.102000
      5 C5           6.0920     1.6380     0.0880 cp         1 B5U      -0.128500
      6 C6           7.3770     1.1610    -0.1690 ca         1 B5U      -0.079000
      7 C7           8.4860     1.9960    -0.1700 ca         1 B5U      -0.078300
      8 C8           9.8480     1.4390    -0.4580 c3         1 B5U      -0.046800
      9 C9           4.9420     0.7220     0.0760 cp         1 B5U       0.290500
     10 C10          3.6380     1.1440    -0.1870 ca         1 B5U       0.383900
     11 N11          2.6100     0.3230    -0.1810 nb         1 B5U      -0.727000
     12 C12          2.8190    -0.9630     0.0770 ca         1 B5U       0.624900
     13 C13          4.1420    -1.4170     0.3100 ca         1 B5U       0.167500
     14 N14          5.1480    -0.5690     0.3040 nb         1 B5U      -0.618000
     15 C15          4.4650    -2.8510     0.5810 c          1 B5U       0.531600
     16 O16          3.5890    -3.7160     0.6070 o          1 B5U      -0.645100
     17 N17          5.7550    -3.1080     0.7860 nt         1 B5U      -0.571000
     18 N18          1.7750    -1.8300     0.1110 nu         1 B5U      -0.917900
     19 C19          0.4140    -1.6090    -0.0050 ca         1 B5U       0.269000
     20 C20         -0.4180    -2.7220     0.1940 ca         1 B5U      -0.111500
     21 C21         -1.7900    -2.6230     0.1150 ca         1 B5U      -0.144500
     22 C22         -2.3980    -1.3990    -0.1700 ca         1 B5U       0.119100
     23 C23         -1.5880    -0.2920    -0.3800 ca         1 B5U      -0.144500
     24 C24         -0.1990    -0.3910    -0.3000 ca         1 B5U      -0.111500
     25 O25         -3.7540    -1.3940    -0.2160 os         1 B5U      -0.349100
     26 C26         -4.4260    -0.1640    -0.4190 c3         1 B5U       0.165600
     27 C27         -5.9140    -0.4190    -0.3020 c3         1 B5U      -0.084400
     28 C28         -6.7130     0.8620    -0.5170 c3         1 B5U       0.174800
     29 N29         -8.1380     0.6560    -0.3880 n3         1 B5U      -0.723600
     30 C30         -8.9010     1.7340    -0.9860 c6         1 B5U       0.166300
     31 C31        -10.3860     1.4340    -0.9210 c6         1 B5U       0.165800
     32 N32        -10.8060     1.2260     0.4460 n3         1 B5U      -0.721600
     33 C33        -10.0440     0.1580     1.0510 c6         1 B5U       0.165800
     34 C34         -8.5600     0.4600     0.9860 c6         1 B5U       0.166300
     35 C35        -12.2270     1.0070     0.5500 c3         1 B5U       0.156100
     36 H11C        10.1980     4.0440     0.9000 hc         1 B5U       0.042700
     37 H12C        10.0410     4.2670    -0.8310 hc         1 B5U       0.042700
     38 H13C         9.1730     5.3250     0.2730 hc         1 B5U       0.042700
     39 H3           6.8900     4.8870     0.5770 ha         1 B5U       0.112000
     40 H4           4.9630     3.4050     0.6010 ha         1 B5U       0.111000
     41 H6           7.5150     0.1090    -0.3850 ha         1 B5U       0.120000
     42 H81C        10.5290     1.5860     0.3820 hc         1 B5U       0.042033
     43 H82C         9.8060     0.3710    -0.6620 hc         1 B5U       0.042033
     44 H83C        10.3060     1.9220    -1.3240 hc         1 B5U       0.042033
     45 H10          3.4200     2.1770    -0.4310 h4         1 B5U       0.031100
     46 H18          2.0750    -2.7840     0.3090 hn         1 B5U       0.547000
     47 H171         6.4340    -2.3670     0.7840 hn         1 B5U       0.330500
     48 H172         6.0570    -4.0420     0.9990 hn         1 B5U       0.330500
     49 H20          0.0200    -3.6850     0.4300 ha         1 B5U       0.133000
     50 H24          0.4030     0.4880    -0.4650 ha         1 B5U       0.133000
     51 H21         -2.4040    -3.4980     0.2860 ha         1 B5U       0.121500
     52 H23         -2.0080     0.6780    -0.6130 ha         1 B5U       0.121500
     53 H261        -4.1120     0.5750     0.3280 h1         1 B5U       0.031200
     54 H262        -4.1790     0.2490    -1.4060 h1         1 B5U       0.031200
     55 H271        -6.2330    -1.1610    -1.0380 hc         1 B5U       0.062200
     56 H272        -6.1200    -0.8360     0.6860 hc         1 B5U       0.062200
     57 H281        -6.3470     1.6510     0.1650 h1         1 B5U       0.028700
     58 H282        -6.5170     1.2260    -1.5300 h1         1 B5U       0.028700
     59 H301        -8.7050     2.7010    -0.4920 h1         1 B5U       0.037700
     60 H302        -8.6070     1.8400    -2.0330 h1         1 B5U       0.037700
     61 H341        -8.0160    -0.3780     1.4260 h1         1 B5U       0.037700
     62 H342        -8.3450     1.3480     1.6070 h1         1 B5U       0.037700
     63 H311       -10.9400     2.2790    -1.3390 h1         1 B5U       0.037700
     64 H312       -10.6010     0.5570    -1.5580 h1         1 B5U       0.037700
     65 H331       -10.3390     0.0570     2.0980 h1         1 B5U       0.037700
     66 H332       -10.2360    -0.8160     0.5660 h1         1 B5U       0.037700
     67 H351       -12.5730     0.1050     0.0190 h1         1 B5U       0.029700
     68 H352       -12.5160     0.9070     1.5980 h1         1 B5U       0.029700
     69 H353       -12.7700     1.8610     0.1410 h1         1 B5U       0.029700
@<TRIPOS>BOND
     1     1     2 1   
     2     1    36 1   
     3     1    37 1   
     4     1    38 1   
     5     2     3 ar  
     6     2     7 ar  
     7     3     4 ar  
     8     3    39 1   
     9     4     5 ar  
    10     4    40 1   
    11     5     6 ar  
    12     5     9 1   
    13     6     7 ar  
    14     6    41 1   
    15     7     8 1   
    16     8    42 1   
    17     8    43 1   
    18     8    44 1   
    19     9    10 ar  
    20     9    14 ar  
    21    10    11 ar  
    22    10    45 1   
    23    11    12 ar  
    24    12    13 ar  
    25    12    18 1   
    26    13    14 ar  
    27    13    15 1   
    28    15    16 2   
    29    15    17 1   
    30    17    47 1   
    31    17    48 1   
    32    18    19 1   
    33    18    46 1   
    34    19    20 ar  
    35    19    24 ar  
    36    20    21 ar  
    37    20    49 1   
    38    21    22 ar  
    39    21    51 1   
    40    22    23 ar  
    41    22    25 1   
    42    23    24 ar  
    43    23    52 1   
    44    24    50 1   
    45    25    26 1   
    46    26    27 1   
    47    26    53 1   
    48    26    54 1   
    49    27    28 1   
    50    27    55 1   
    51    27    56 1   
    52    28    29 1   
    53    28    57 1   
    54    28    58 1   
    55    29    30 1   
    56    29    34 1   
    57    30    31 1   
    58    30    59 1   
    59    30    60 1   
    60    31    32 1   
    61    31    63 1   
    62    31    64 1   
    63    32    33 1   
    64    32    35 1   
    65    33    34 1   
    66    33    65 1   
    67    33    66 1   
    68    34    61 1   
    69    34    62 1   
    70    35    67 1   
    71    35    68 1   
    72    35    69 1   
@<TRIPOS>SUBSTRUCTURE
     1 B5U         1 TEMP              0 ****  ****    0 ROOT
