@<TRIPOS>MOLECULE
B5W
   47    49     1     0     0
SMALL
No Charge or Current Charge


@<TRIPOS>ATOM
      1 C2           0.9550    -1.4580     0.7980 ca         1 B5W      -0.190300
      2 C3          -0.3710    -2.0020     1.2820 c3         1 B5W       0.162900
      3 C4          -2.9000    -1.5380     1.0110 c3         1 B5W       0.089600
      4 C5          -3.8950    -0.6000     0.3110 c3         1 B5W      -0.107400
      5 C6          -5.3630    -0.9450     0.6360 c3         1 B5W      -0.015100
      6 C9          -7.7160     0.5530    -1.9990 ca         1 B5W      -0.100500
      7 C10         -8.1300     1.7380    -1.3670 ca         1 B5W      -0.089000
      8 C11         -7.6470     2.0530    -0.0860 ca         1 B5W      -0.100500
      9 C12         -6.7520     1.1840     0.5630 ca         1 B5W      -0.102000
     10 C13          1.5280    -1.9440    -0.3890 ca         1 B5W      -0.084000
     11 C14          2.7570    -1.4330    -0.8380 ca         1 B5W      -0.091000
     12 C21          4.9580     1.4790    -0.8520 ca         1 B5W      -0.081000
     13 Cl           3.6490     1.2620     2.0960 cl         1 B5W      -0.145000
     14 C            2.8540     0.0520     1.0860 ca         1 B5W       0.121000
     15 C15          3.4410    -0.4230    -0.1200 cp         1 B5W       0.047000
     16 C16          4.7440     0.0940    -0.6390 cp         1 B5W      -0.085000
     17 C20          6.1810     1.9530    -1.3550 ca         1 B5W      -0.105500
     18 C19          7.2130     1.0500    -1.6630 ca         1 B5W      -0.080000
     19 C18          7.0170    -0.3270    -1.4710 ca         1 B5W      -0.105500
     20 C17          5.7930    -0.8000    -0.9670 ca         1 B5W      -0.081000
     21 C1           1.6240    -0.4630     1.5330 ca         1 B5W      -0.076000
     22 N           -1.4670    -1.1620     0.6630 ny         1 B5W      -0.824000
     23 C7          -6.3360    -0.0060    -0.0650 ca         1 B5W      -0.112300
     24 C8          -6.8220    -0.3160    -1.3500 ca         1 B5W      -0.102000
     25 H1          -0.5000    -3.0460     0.9800 hx         1 B5W       0.101700
     26 H2          -0.4440    -1.9480     2.3720 hx         1 B5W       0.101700
     27 H3          -3.0340    -1.4740     2.0950 hx         1 B5W       0.098700
     28 H4          -3.0860    -2.5700     0.6990 hx         1 B5W       0.098700
     29 H5          -3.6940     0.4350     0.6140 hc         1 B5W       0.066700
     30 H6          -3.7450    -0.6550    -0.7740 hc         1 B5W       0.066700
     31 H7          -5.5630    -1.9830     0.3430 hc         1 B5W       0.058200
     32 H8          -5.5120    -0.9000     1.7220 hc         1 B5W       0.058200
     33 H10         -8.8220     2.4100    -1.8700 ha         1 B5W       0.128000
     34 H11         -7.9650     2.9710     0.4040 ha         1 B5W       0.125500
     35 H12         -6.3820     1.4380     1.5540 ha         1 B5W       0.108000
     36 H13          1.0240    -2.7170    -0.9670 ha         1 B5W       0.120000
     37 H14          3.1850    -1.8150    -1.7620 ha         1 B5W       0.146000
     38 H15          4.1640     2.1890    -0.6320 ha         1 B5W       0.116000
     39 H16          6.3280     3.0200    -1.5110 ha         1 B5W       0.126500
     40 H17          8.1600     1.4170    -2.0530 ha         1 B5W       0.128000
     41 H18          7.8130    -1.0280    -1.7120 ha         1 B5W       0.126500
     42 H19          5.6550    -1.8700    -0.8210 ha         1 B5W       0.116000
     43 H20          1.1950    -0.0880     2.4600 ha         1 B5W       0.132000
     44 H21         -1.2950    -0.1640     0.9050 hn         1 B5W       0.501500
     45 H22         -1.3420    -1.1670    -0.3700 hn         1 B5W       0.501500
     46 H23         -6.5050    -1.2300    -1.8480 ha         1 B5W       0.108000
     47 H9          -8.0880     0.3080    -2.9920 ha         1 B5W       0.125500
@<TRIPOS>BOND
     1     1     2 1   
     2     1    10 ar  
     3     1    21 ar  
     4     2    22 1   
     5     2    25 1   
     6     2    26 1   
     7     3     4 1   
     8     3    22 1   
     9     3    27 1   
    10     3    28 1   
    11     4     5 1   
    12     4    29 1   
    13     4    30 1   
    14     5    23 1   
    15     5    31 1   
    16     5    32 1   
    17     6     7 ar  
    18     6    24 ar  
    19     6    47 1   
    20     7     8 ar  
    21     7    33 1   
    22     8     9 ar  
    23     8    34 1   
    24     9    23 ar  
    25     9    35 1   
    26    10    11 ar  
    27    10    36 1   
    28    11    15 ar  
    29    11    37 1   
    30    12    16 ar  
    31    12    17 ar  
    32    12    38 1   
    33    13    14 1   
    34    14    15 ar  
    35    14    21 ar  
    36    15    16 1   
    37    16    20 ar  
    38    17    18 ar  
    39    17    39 1   
    40    18    19 ar  
    41    18    40 1   
    42    19    20 ar  
    43    19    41 1   
    44    20    42 1   
    45    21    43 1   
    46    22    44 1   
    47    22    45 1   
    48    23    24 ar  
    49    24    46 1   
@<TRIPOS>SUBSTRUCTURE
     1 B5W         1 TEMP              0 ****  ****    0 ROOT
