@<TRIPOS>MOLECULE
B5W
   47    49     1     0     0
SMALL
abcg2


@<TRIPOS>ATOM
      1 C2           0.9480    -1.3310     0.7280 ca         1 B5W      -0.190300
      2 C3          -0.4060    -1.7990     1.1640 c3         1 B5W       0.162900
      3 C4          -2.8550    -1.3860     0.9040 c3         1 B5W       0.089600
      4 C5          -3.8900    -0.5160     0.2210 c3         1 B5W      -0.107400
      5 C6          -5.3030    -0.9520     0.6140 c3         1 B5W      -0.015100
      6 C9          -7.7290     0.4970    -1.9220 ca         1 B5W      -0.100500
      7 C10         -8.2360     1.5950    -1.2370 ca         1 B5W      -0.089000
      8 C11         -7.7990     1.8570     0.0550 ca         1 B5W      -0.100500
      9 C12         -6.8610     1.0260     0.6550 ca         1 B5W      -0.102000
     10 C13          1.5160    -1.8060    -0.4490 ca         1 B5W      -0.084000
     11 C14          2.7520    -1.3400    -0.8590 ca         1 B5W      -0.091000
     12 C21          5.0340     1.4110    -0.8490 ca         1 B5W      -0.081000
     13 CL           3.7240     1.1670     2.0930 cl         1 B5W      -0.145000
     14 C            2.8820     0.0540     1.0680 ca         1 B5W       0.121000
     15 C15          3.4630    -0.3960    -0.1170 cp         1 B5W       0.047000
     16 C16          4.7840     0.0620    -0.5990 cp         1 B5W      -0.085000
     17 C20          6.2670     1.8160    -1.3400 ca         1 B5W      -0.105500
     18 C19          7.2650     0.8810    -1.5830 ca         1 B5W      -0.080000
     19 C18          7.0230    -0.4640    -1.3390 ca         1 B5W      -0.105500
     20 C17          5.7880    -0.8700    -0.8530 ca         1 B5W      -0.081000
     21 C1           1.6410    -0.3980     1.4880 ca         1 B5W      -0.076000
     22 N           -1.4760    -0.9830     0.5160 ny         1 B5W      -0.824000
     23 C7          -6.3480    -0.0780    -0.0220 ca         1 B5W      -0.112300
     24 C8          -6.7940    -0.3310    -1.3170 ca         1 B5W      -0.102000
     25 H1          -0.5870    -2.8340     0.8820 hx         1 B5W       0.101700
     26 H2          -0.5440    -1.7000     2.2390 hx         1 B5W       0.101700
     27 H3          -2.9140    -1.3020     1.9880 hx         1 B5W       0.098700
     28 H4          -2.9640    -2.4350     0.6310 hx         1 B5W       0.098700
     29 H5          -3.7390     0.5300     0.5010 hc         1 B5W       0.066700
     30 H6          -3.7760    -0.5810    -0.8640 hc         1 B5W       0.066700
     31 H7          -5.4560    -1.9920     0.3160 hc         1 B5W       0.058200
     32 H8          -5.4030    -0.9170     1.7020 hc         1 B5W       0.058200
     33 H10         -8.9680     2.2400    -1.7060 ha         1 B5W       0.128000
     34 H11         -8.1910     2.7060     0.6000 ha         1 B5W       0.125500
     35 H12         -6.5260     1.2350     1.6640 ha         1 B5W       0.108000
     36 H13          0.9940    -2.5420    -1.0480 ha         1 B5W       0.120000
     37 H14          3.1810    -1.7070    -1.7830 ha         1 B5W       0.146000
     38 H15          4.2590     2.1470    -0.6780 ha         1 B5W       0.116000
     39 H16          6.4470     2.8650    -1.5360 ha         1 B5W       0.126500
     40 H17          8.2270     1.2010    -1.9630 ha         1 B5W       0.128000
     41 H18          7.7940    -1.1990    -1.5250 ha         1 B5W       0.126500
     42 H19          5.6060    -1.9200    -0.6590 ha         1 B5W       0.116000
     43 H20          1.2210    -0.0330     2.4160 ha         1 B5W       0.132000
     44 H21         -1.3350     0.0030     0.7460 hn         1 B5W       0.501500
     45 H22         -1.3780    -1.0440    -0.5000 hn         1 B5W       0.501500
     46 H23         -6.4070    -1.1870    -1.8590 ha         1 B5W       0.108000
     47 H9          -8.0670     0.2840    -2.9280 ha         1 B5W       0.125500
@<TRIPOS>BOND
     1     1     2 1   
     2     1    10 ar  
     3     1    21 ar  
     4     2    22 1   
     5     2    25 1   
     6     2    26 1   
     7     3     4 1   
     8     3    22 1   
     9     3    27 1   
    10     3    28 1   
    11     4     5 1   
    12     4    29 1   
    13     4    30 1   
    14     5    23 1   
    15     5    31 1   
    16     5    32 1   
    17     6     7 ar  
    18     6    24 ar  
    19     6    47 1   
    20     7     8 ar  
    21     7    33 1   
    22     8     9 ar  
    23     8    34 1   
    24     9    23 ar  
    25     9    35 1   
    26    10    11 ar  
    27    10    36 1   
    28    11    15 ar  
    29    11    37 1   
    30    12    16 ar  
    31    12    17 ar  
    32    12    38 1   
    33    13    14 1   
    34    14    15 ar  
    35    14    21 ar  
    36    15    16 1   
    37    16    20 ar  
    38    17    18 ar  
    39    17    39 1   
    40    18    19 ar  
    41    18    40 1   
    42    19    20 ar  
    43    19    41 1   
    44    20    42 1   
    45    21    43 1   
    46    22    44 1   
    47    22    45 1   
    48    23    24 ar  
    49    24    46 1   
@<TRIPOS>SUBSTRUCTURE
     1 B5W         1 TEMP              0 ****  ****    0 ROOT
