@<TRIPOS>MOLECULE
B5X
   54    57     1     0     0
SMALL
No Charge or Current Charge


@<TRIPOS>ATOM
      1 C13         -1.2970    -0.8060    -0.4400 ca         1 B5X       0.221500
      2 C15         -0.9390     0.3740     1.6470 ca         1 B5X       0.221500
      3 C20         -5.5960     0.3870     0.1430 ca         1 B5X       0.336000
      4 C21         -5.7560     1.7820     0.2580 ca         1 B5X      -0.177000
      5 C22         -4.6470     2.6170     0.4690 ca         1 B5X      -0.068000
      6 C26         -7.9320     0.0310    -0.7660 c3         1 B5X       0.212600
      7 C1           4.6150     1.0450    -0.4310 c6         1 B5X      -0.044700
      8 C2           5.8020     0.3210     0.2910 c6         1 B5X      -0.180400
      9 C3           5.6150    -1.2040     0.4450 c          1 B5X       0.511600
     10 O4           6.5750    -1.9660     0.3860 o          1 B5X      -0.490100
     11 C5           4.2110    -1.6480     0.6450 cc         1 B5X       0.105500
     12 C6           3.1770    -0.7670     0.5940 cd         1 B5X      -0.111300
     13 C7           3.2700     0.7110     0.2910 c6         1 B5X      -0.014100
     14 N8           2.1030    -1.5900     0.8260 na         1 B5X       0.207000
     15 N9           2.4540    -2.9050     0.9540 nd         1 B5X      -0.183800
     16 N10          3.7660    -2.9330     0.8620 nc         1 B5X      -0.283000
     17 C11          0.8210    -1.0480     0.7410 ca         1 B5X       0.055800
     18 C12         -0.0100    -1.3580    -0.3480 ca         1 B5X      -0.172000
     19 C14         -1.7930     0.0760     0.5540 cp         1 B5X      -0.113000
     20 C16          0.3460    -0.1790     1.7400 ca         1 B5X      -0.172000
     21 F17         -1.3600     1.1890     2.6400 f          1 B5X      -0.155500
     22 C18         -3.1630     0.6670     0.4550 cp         1 B5X      -0.003000
     23 C19         -4.2970    -0.1530     0.2440 ca         1 B5X      -0.163000
     24 C23         -3.3620     2.0620     0.5660 ca         1 B5X      -0.139000
     25 C25         -6.7310    -1.8620     0.4020 c3         1 B5X       0.212600
     26 F27         -2.0510    -1.1140    -1.5190 f          1 B5X      -0.155500
     27 H211        -6.7440     2.2290     0.1970 ha         1 B5X       0.114000
     28 H221        -4.7830     3.6930     0.5570 ha         1 B5X       0.111000
     29 H262        -7.6610     0.7300    -1.5690 h1         1 B5X       0.036867
     30 H261        -8.4800    -0.8030    -1.2250 h1         1 B5X       0.036867
     31 H263        -8.6030     0.5420    -0.0630 h1         1 B5X       0.036867
     32 H281         4.9270     3.0200     0.4380 hc         1 B5X       0.046700
     33 H011         4.5540     0.6480    -1.4550 hc         1 B5X       0.062700
     34 H021         6.7800     0.5030    -0.1710 hc         1 B5X       0.074200
     35 H022         5.8410     0.7210     1.3130 hc         1 B5X       0.074200
     36 H071         3.1920     1.2870     1.2240 hc         1 B5X       0.067700
     37 H072         2.4200     1.0140    -0.3350 hc         1 B5X       0.067700
     38 H121         0.3420    -2.0250    -1.1320 ha         1 B5X       0.156000
     39 H161         0.9730     0.0670     2.5940 ha         1 B5X       0.156000
     40 H191        -4.1540    -1.2250     0.1540 ha         1 B5X       0.117000
     41 H231        -2.5100     2.7200     0.7220 ha         1 B5X       0.116000
     42 H251        -6.2530    -2.5190    -0.3380 h1         1 B5X       0.036867
     43 H253        -6.1970    -1.9560     1.3560 h1         1 B5X       0.036867
     44 H252        -7.7600    -2.2120     0.5630 h1         1 B5X       0.036867
     45 H291         7.0420     2.6560    -0.7270 hc         1 B5X       0.036867
     46 H293         6.2080     2.4820    -2.2900 hc         1 B5X       0.036867
     47 H292         6.2410     4.0460    -1.4510 hc         1 B5X       0.036867
     48 H302         3.4630     2.9040    -2.2490 hc         1 B5X       0.036867
     49 H303         2.7510     3.2710    -0.6600 hc         1 B5X       0.036867
     50 H301         3.8910     4.3980    -1.3900 hc         1 B5X       0.036867
     51 N24         -6.7190    -0.4560    -0.0670 nh         1 B5X      -0.822400
     52 C28          4.8460     2.5970    -0.5720 c3         1 B5X      -0.057700
     53 C29          6.1630     2.9620    -1.3050 c3         1 B5X      -0.091100
     54 C30          3.6660     3.3320    -1.2600 c3         1 B5X      -0.091100
@<TRIPOS>BOND
     1     1    18 ar  
     2     1    19 ar  
     3     1    26 1   
     4     2    19 ar  
     5     2    20 ar  
     6     2    21 1   
     7     3     4 ar  
     8     3    23 ar  
     9     3    51 1   
    10     4     5 ar  
    11     4    27 1   
    12     5    24 ar  
    13     5    28 1   
    14     6    29 1   
    15     6    30 1   
    16     6    31 1   
    17     6    51 1   
    18     7     8 1   
    19     7    13 1   
    20     7    33 1   
    21     7    52 1   
    22     8     9 1   
    23     8    34 1   
    24     8    35 1   
    25     9    10 2   
    26     9    11 1   
    27    11    12 2   
    28    11    16 1   
    29    12    13 1   
    30    12    14 1   
    31    13    36 1   
    32    13    37 1   
    33    14    15 1   
    34    14    17 1   
    35    15    16 2   
    36    17    18 ar  
    37    17    20 ar  
    38    18    38 1   
    39    19    22 1   
    40    20    39 1   
    41    22    23 ar  
    42    22    24 ar  
    43    23    40 1   
    44    24    41 1   
    45    25    42 1   
    46    25    43 1   
    47    25    44 1   
    48    25    51 1   
    49    32    52 1   
    50    45    53 1   
    51    46    53 1   
    52    47    53 1   
    53    48    54 1   
    54    49    54 1   
    55    50    54 1   
    56    52    53 1   
    57    52    54 1   
@<TRIPOS>SUBSTRUCTURE
     1 B5X         1 TEMP              0 ****  ****    0 ROOT
