@<TRIPOS>MOLECULE
B5X
   54    57     1     0     0
SMALL
abcg2


@<TRIPOS>ATOM
      1 C13         -1.5490    -1.0010    -0.9060 ca         1 B5X       0.221500
      2 C15         -1.0510     0.6760     0.6600 ca         1 B5X       0.221500
      3 C20         -5.7510     0.2740     0.2110 ca         1 B5X       0.336000
      4 C21         -5.9910     1.5120    -0.4150 ca         1 B5X      -0.177000
      5 C22         -4.9470     2.2640    -0.9270 ca         1 B5X      -0.068000
      6 C26         -8.1380    -0.0840     0.4910 c3         1 B5X       0.212600
      7 C1           4.8120     1.1280    -0.1780 c6         1 B5X      -0.044700
      8 C2           5.7760     0.1650     0.5330 c6         1 B5X      -0.180400
      9 C3           5.4930    -1.3030     0.3070 c          1 B5X       0.511600
     10 O4           6.3560    -2.1550     0.2780 o          1 B5X      -0.490100
     11 C5           4.0730    -1.6010     0.1790 cc         1 B5X       0.105500
     12 C6           3.1120    -0.6230     0.1710 cd         1 B5X      -0.111300
     13 C7           3.3540     0.8360     0.2200 c6         1 B5X      -0.014100
     14 N8           1.9650    -1.3150     0.0620 na         1 B5X       0.207000
     15 N9           2.2140    -2.6380     0.0020 nd         1 B5X      -0.183800
     16 N10          3.4730    -2.8110     0.0690 nc         1 B5X      -0.283000
     17 C11          0.6370    -0.8460    -0.0100 ca         1 B5X       0.055800
     18 C12         -0.2560    -1.4810    -0.8600 ca         1 B5X      -0.172000
     19 C14         -1.9940     0.0870    -0.1680 cp         1 B5X      -0.113000
     20 C16          0.2520     0.2330     0.7710 ca         1 B5X      -0.172000
     21 F17         -1.4290     1.7120     1.4100 f          1 B5X      -0.155500
     22 C18         -3.3820     0.5930    -0.2560 cp         1 B5X      -0.003000
     23 C19         -4.4180    -0.1750     0.2590 ca         1 B5X      -0.163000
     24 C23         -3.6330     1.8250    -0.8500 ca         1 B5X      -0.139000
     25 C25         -6.5100    -1.7970     1.2380 c3         1 B5X       0.212600
     26 F27         -2.4140    -1.5990    -1.7270 f          1 B5X      -0.155500
     27 H211        -6.9950     1.9010    -0.5070 ha         1 B5X       0.114000
     28 H221        -5.1700     3.2120    -1.3990 ha         1 B5X       0.111000
     29 H262        -8.3930    -0.1270    -0.5740 h1         1 B5X       0.036867
     30 H261        -8.8040    -0.7590     1.0210 h1         1 B5X       0.036867
     31 H263        -8.3540     0.9250     0.8460 h1         1 B5X       0.036867
     32 H281         5.0890     2.7470     1.1930 hc         1 B5X       0.046700
     33 H011         4.8990     0.9640    -1.2600 hc         1 B5X       0.062700
     34 H021         6.8080     0.3530     0.2400 hc         1 B5X       0.074200
     35 H022         5.7220     0.3360     1.6170 hc         1 B5X       0.074200
     36 H071         3.1680     1.2070     1.2340 hc         1 B5X       0.067700
     37 H072         2.6580     1.3540    -0.4400 hc         1 B5X       0.067700
     38 H121         0.0420    -2.3160    -1.4770 ha         1 B5X       0.156000
     39 H161         0.9240     0.7060     1.4740 ha         1 B5X       0.156000
     40 H191        -4.1730    -1.1270     0.7090 ha         1 B5X       0.117000
     41 H231        -2.8250     2.4180    -1.2590 ha         1 B5X       0.116000
     42 H251        -6.2170    -2.4900     0.4410 h1         1 B5X       0.036867
     43 H253        -5.7230    -1.8030     1.9940 h1         1 B5X       0.036867
     44 H252        -7.4080    -2.1880     1.7080 h1         1 B5X       0.036867
     45 H291         7.3500     2.3870     0.2460 hc         1 B5X       0.036867
     46 H293         6.7460     2.7170    -1.3780 hc         1 B5X       0.036867
     47 H292         6.7940     3.9970    -0.1680 hc         1 B5X       0.036867
     48 H302         4.2130     3.4100    -1.6630 hc         1 B5X       0.036867
     49 H303         3.1710     3.4400    -0.2400 hc         1 B5X       0.036867
     50 H301         4.4840     4.5900    -0.3840 hc         1 B5X       0.036867
     51 N24         -6.7690    -0.4590     0.7590 nh         1 B5X      -0.822400
     52 C28          5.1690     2.5960     0.1090 c3         1 B5X      -0.057700
     53 C29          6.5960     2.9350    -0.3180 c3         1 B5X      -0.091100
     54 C30          4.2000     3.5560    -0.5800 c3         1 B5X      -0.091100
@<TRIPOS>BOND
     1     1    18 ar  
     2     1    19 ar  
     3     1    26 1   
     4     2    19 ar  
     5     2    20 ar  
     6     2    21 1   
     7     3     4 ar  
     8     3    23 ar  
     9     3    51 1   
    10     4     5 ar  
    11     4    27 1   
    12     5    24 ar  
    13     5    28 1   
    14     6    29 1   
    15     6    30 1   
    16     6    31 1   
    17     6    51 1   
    18     7     8 1   
    19     7    13 1   
    20     7    33 1   
    21     7    52 1   
    22     8     9 1   
    23     8    34 1   
    24     8    35 1   
    25     9    10 2   
    26     9    11 1   
    27    11    12 2   
    28    11    16 1   
    29    12    13 1   
    30    12    14 1   
    31    13    36 1   
    32    13    37 1   
    33    14    15 1   
    34    14    17 1   
    35    15    16 2   
    36    17    18 ar  
    37    17    20 ar  
    38    18    38 1   
    39    19    22 1   
    40    20    39 1   
    41    22    23 ar  
    42    22    24 ar  
    43    23    40 1   
    44    24    41 1   
    45    25    42 1   
    46    25    43 1   
    47    25    44 1   
    48    25    51 1   
    49    32    52 1   
    50    45    53 1   
    51    46    53 1   
    52    47    53 1   
    53    48    54 1   
    54    49    54 1   
    55    50    54 1   
    56    52    53 1   
    57    52    54 1   
@<TRIPOS>SUBSTRUCTURE
     1 B5X         1 TEMP              0 ****  ****    0 ROOT
