@<TRIPOS>MOLECULE
B5Z
   59    63     1     0     0
SMALL
abcg2


@<TRIPOS>ATOM
      1 CAL         -7.7590    -4.4500     0.9330 cx         1 B5Z      -0.089900
      2 CAM         -7.0480    -5.1370    -0.1700 cx         1 B5Z      -0.089900
      3 CBF         -7.2500    -3.6430    -0.2390 cx         1 B5Z      -0.249700
      4 CAY         -6.0760    -2.7790    -0.0150 c          1 B5Z       0.642100
      5 OAB         -5.1560    -3.0510     0.7340 o          1 B5Z      -0.567100
      6 NAU         -6.0830    -1.6070    -0.7230 ns         1 B5Z      -0.399400
      7 CBC         -5.1150    -0.6450    -0.6600 cc         1 B5Z       0.437800
      8 NAQ         -5.2080     0.4400    -1.3530 nd         1 B5Z      -0.604100
      9 SAW         -3.7070    -0.8270     0.3610 ss         1 B5Z      -0.061500
     10 CBE         -3.1880     0.7420    -0.2110 ca         1 B5Z       0.334300
     11 NAR         -2.0850     1.3430     0.1690 nb         1 B5Z      -0.620000
     12 CBD         -4.1290     1.2470    -1.1170 ca         1 B5Z       0.077400
     13 CAG         -3.8610     2.4940    -1.6700 ca         1 B5Z      -0.036000
     14 CAF         -2.7030     3.1380    -1.2800 ca         1 B5Z      -0.148000
     15 CBB         -1.8340     2.5440    -0.3520 cp         1 B5Z       0.405500
     16 CBA         -0.5900     3.2130     0.0860 cp         1 B5Z      -0.123500
     17 CAH          0.4620     2.4420     0.5790 ca         1 B5Z      -0.078000
     18 CAE         -0.4650     4.6020     0.0420 ca         1 B5Z      -0.119000
     19 CAC          0.7040     5.2010     0.4860 ca         1 B5Z      -0.093000
     20 CAD          1.7560     4.4340     0.9560 ca         1 B5Z      -0.155000
     21 CAZ          1.6440     3.0440     1.0020 ca         1 B5Z      -0.017000
     22 NAT          2.7100     2.3130     1.5300 ns         1 B5Z      -0.171000
     23 CAX          3.1230     1.0710     1.1020 c          1 B5Z       0.657100
     24 OAA          2.5820     0.4680     0.1870 o          1 B5Z      -0.616100
     25 NAS          4.1660     0.5740     1.8070 ns         1 B5Z      -0.522900
     26 CAI          4.8510    -0.6370     1.4260 c3         1 B5Z       0.111000
     27 CAN          6.0550    -0.3650     0.5250 c3         1 B5Z       0.142800
     28 NBG          6.6920    -1.5960     0.1040 n3         1 B5Z      -0.723600
     29 CAO          8.0880    -1.4140    -0.2520 c6         1 B5Z       0.128300
     30 CAJ          8.7070    -2.7520    -0.6100 c6         1 B5Z       0.153600
     31 OAV          8.0140    -3.3810    -1.6660 os         1 B5Z      -0.450000
     32 CAK          6.6530    -3.5550    -1.3410 c6         1 B5Z       0.153600
     33 CAP          5.9890    -2.2360    -0.9930 c6         1 B5Z       0.128300
     34 H1          -8.8320    -4.5570     1.0080 hc         1 B5Z       0.085950
     35 H2          -7.2440    -4.3270     1.8770 hc         1 B5Z       0.085950
     36 H3          -6.0420    -5.4920     0.0120 hc         1 B5Z       0.085950
     37 H4          -7.6220    -5.7290    -0.8700 hc         1 B5Z       0.085950
     38 H5          -7.9900    -3.2780    -0.9410 hc         1 B5Z       0.093700
     39 H6          -4.5350     2.9420    -2.3880 ha         1 B5Z       0.134000
     40 H8          -2.4640     4.1000    -1.7100 ha         1 B5Z       0.126000
     41 H9           0.3440     1.3720     0.6340 ha         1 B5Z       0.159000
     42 H10         -1.2800     5.2220    -0.3070 ha         1 B5Z       0.114000
     43 H11          0.7980     6.2790     0.4650 ha         1 B5Z       0.113000
     44 H12          2.6690     4.9130     1.2890 ha         1 B5Z       0.108000
     45 H13          3.3380     2.8330     2.1230 hn         1 B5Z       0.142000
     46 H14          4.5920     1.1370     2.5250 hn         1 B5Z       0.305500
     47 H15          5.1860    -1.1460     2.3310 h1         1 B5Z       0.067700
     48 H16          4.1360    -1.2960     0.9350 h1         1 B5Z       0.067700
     49 H17          5.7430     0.2530    -0.3330 h1         1 B5Z       0.035200
     50 H18          6.7800     0.2280     1.0880 h1         1 B5Z       0.035200
     51 H20          8.2100    -0.7120    -1.0950 h1         1 B5Z       0.043450
     52 H21          8.6290    -0.9940     0.5990 h1         1 B5Z       0.043450
     53 H22          9.7400    -2.6150    -0.9310 h1         1 B5Z       0.050450
     54 H23          8.7120    -3.3950     0.2820 h1         1 B5Z       0.050450
     55 H24          6.1640    -4.0020    -2.2080 h1         1 B5Z       0.050450
     56 H25          6.5440    -4.2490    -0.4960 h1         1 B5Z       0.050450
     57 H26          4.9530    -2.4360    -0.7120 h1         1 B5Z       0.043450
     58 H27          5.9630    -1.5880    -1.8860 h1         1 B5Z       0.043450
     59 H7          -6.8550    -1.4030    -1.3430 hn         1 B5Z       0.341500
@<TRIPOS>BOND
     1     1     2 1   
     2     1     3 1   
     3     1    34 1   
     4     1    35 1   
     5     2     3 1   
     6     2    36 1   
     7     2    37 1   
     8     3     4 1   
     9     3    38 1   
    10     4     5 2   
    11     4     6 1   
    12     6     7 1   
    13     6    59 1   
    14     7     8 2   
    15     7     9 1   
    16     8    12 1   
    17     9    10 1   
    18    10    11 ar  
    19    10    12 ar  
    20    11    15 ar  
    21    12    13 ar  
    22    13    14 ar  
    23    13    39 1   
    24    14    15 ar  
    25    14    40 1   
    26    15    16 1   
    27    16    17 ar  
    28    16    18 ar  
    29    17    21 ar  
    30    17    41 1   
    31    18    19 ar  
    32    18    42 1   
    33    19    20 ar  
    34    19    43 1   
    35    20    21 ar  
    36    20    44 1   
    37    21    22 1   
    38    22    23 1   
    39    22    45 1   
    40    23    24 2   
    41    23    25 1   
    42    25    26 1   
    43    25    46 1   
    44    26    27 1   
    45    26    47 1   
    46    26    48 1   
    47    27    28 1   
    48    27    49 1   
    49    27    50 1   
    50    28    29 1   
    51    28    33 1   
    52    29    30 1   
    53    29    51 1   
    54    29    52 1   
    55    30    31 1   
    56    30    53 1   
    57    30    54 1   
    58    31    32 1   
    59    32    33 1   
    60    32    55 1   
    61    32    56 1   
    62    33    57 1   
    63    33    58 1   
@<TRIPOS>SUBSTRUCTURE
     1 B5Z         1 TEMP              0 ****  ****    0 ROOT
