@<TRIPOS>MOLECULE
B5Z
   59    63     1     0     0
SMALL
No Charge or Current Charge


@<TRIPOS>ATOM
      1 CAL         -8.1360    -3.7760    -0.5310 cx         1 B5Z      -0.089900
      2 CAM         -7.4180    -5.0640    -0.2020 cx         1 B5Z      -0.089900
      3 CBF         -6.7870    -4.0700    -1.1600 cx         1 B5Z      -0.249700
      4 CAY         -5.5840    -3.2810    -0.7060 c          1 B5Z       0.642100
      5 OAB         -4.6400    -3.8060    -0.1350 o          1 B5Z      -0.567100
      6 NAU         -5.6650    -1.9480    -1.0080 ns         1 B5Z      -0.399400
      7 CBC         -4.7690    -0.9410    -0.7480 cc         1 B5Z       0.437800
      8 NAQ         -5.1150     0.2790    -1.1650 nd         1 B5Z      -0.604100
      9 SAW         -3.2060    -1.1440     0.0920 ss         1 B5Z      -0.061500
     10 CBE         -3.0010     0.5780    -0.1400 ca         1 B5Z       0.334300
     11 NAR         -1.9140     1.2600     0.2820 nb         1 B5Z      -0.620000
     12 CBD         -4.0810     1.1360    -0.8020 ca         1 B5Z       0.077400
     13 CAG         -4.0630     2.5120    -1.0670 ca         1 B5Z      -0.036000
     14 CAF         -2.9410     3.2470    -0.6360 ca         1 B5Z      -0.148000
     15 CBB         -1.8740     2.5950     0.0470 cp         1 B5Z       0.405500
     16 CBA         -0.6520     3.3340     0.5300 cp         1 B5Z      -0.123500
     17 CAH          0.5830     2.6590     0.7450 ca         1 B5Z      -0.078000
     18 CAE         -0.6890     4.7290     0.7960 ca         1 B5Z      -0.119000
     19 CAC          0.4500     5.4130     1.2470 ca         1 B5Z      -0.093000
     20 CAD          1.6540     4.7230     1.4450 ca         1 B5Z      -0.155000
     21 CAZ          1.7350     3.3420     1.1960 ca         1 B5Z      -0.017000
     22 NAT          2.9910     2.7120     1.4220 ns         1 B5Z      -0.171000
     23 CAX          3.4300     1.4120     1.2320 c          1 B5Z       0.657100
     24 OAA          2.7560     0.4940     0.7880 o          1 B5Z      -0.616100
     25 NAS          4.7430     1.2450     1.6020 ns         1 B5Z      -0.522900
     26 CAI          5.4890    -0.0170     1.4850 c3         1 B5Z       0.111000
     27 CAN          5.8610    -0.3660     0.0200 c3         1 B5Z       0.142800
     28 NBG          6.7360    -1.5570    -0.1400 n3         1 B5Z      -0.723600
     29 CAO          7.2290    -1.7130    -1.5450 c6         1 B5Z       0.128300
     30 CAJ          8.1610    -2.9520    -1.7000 c6         1 B5Z       0.153600
     31 OAV          7.4880    -4.1480    -1.2400 os         1 B5Z      -0.450000
     32 CAK          7.0700    -4.0530     0.1430 c6         1 B5Z       0.153600
     33 CAP          6.1160    -2.8350     0.3410 c6         1 B5Z       0.128300
     34 H1          -9.0180    -3.8380    -1.1650 hc         1 B5Z       0.085950
     35 H2          -8.1930    -3.0200     0.2500 hc         1 B5Z       0.085950
     36 H3          -6.9910    -5.1640     0.7940 hc         1 B5Z       0.085950
     37 H4          -7.8170    -5.9870    -0.6170 hc         1 B5Z       0.085950
     38 H5          -6.7810    -4.3440    -2.2120 hc         1 B5Z       0.093700
     39 H6          -4.8860     2.9920    -1.5910 ha         1 B5Z       0.134000
     40 H8          -2.8930     4.3100    -0.8440 ha         1 B5Z       0.126000
     41 H9           0.6280     1.5930     0.5490 ha         1 B5Z       0.159000
     42 H10         -1.6100     5.2910     0.6710 ha         1 B5Z       0.114000
     43 H11          0.3970     6.4810     1.4480 ha         1 B5Z       0.113000
     44 H12          2.5290     5.2660     1.7950 ha         1 B5Z       0.108000
     45 H13          3.6940     3.3370     1.7920 hn         1 B5Z       0.142000
     46 H14          5.2280     2.0580     1.9630 hn         1 B5Z       0.305500
     47 H15          6.4100     0.0670     2.0760 h1         1 B5Z       0.067700
     48 H16          4.8830    -0.8240     1.9170 h1         1 B5Z       0.067700
     49 H17          4.9350    -0.5060    -0.5540 h1         1 B5Z       0.035200
     50 H18          6.3690     0.5110    -0.4040 h1         1 B5Z       0.035200
     51 H20          6.3810    -1.8250    -2.2370 h1         1 B5Z       0.043450
     52 H21          7.7830    -0.8160    -1.8580 h1         1 B5Z       0.043450
     53 H22          8.4420    -3.0800    -2.7550 h1         1 B5Z       0.050450
     54 H23          9.0810    -2.8050    -1.1170 h1         1 B5Z       0.050450
     55 H24          6.5560    -4.9810     0.4290 h1         1 B5Z       0.050450
     56 H25          7.9570    -3.9420     0.7830 h1         1 B5Z       0.050450
     57 H26          5.8650    -2.7690     1.4090 h1         1 B5Z       0.043450
     58 H27          5.1790    -3.0320    -0.2000 h1         1 B5Z       0.043450
     59 H7          -6.5090    -1.6780    -1.4890 hn         1 B5Z       0.341500
@<TRIPOS>BOND
     1     1     2 1   
     2     1     3 1   
     3     1    34 1   
     4     1    35 1   
     5     2     3 1   
     6     2    36 1   
     7     2    37 1   
     8     3     4 1   
     9     3    38 1   
    10     4     5 2   
    11     4     6 1   
    12     6     7 1   
    13     6    59 1   
    14     7     8 2   
    15     7     9 1   
    16     8    12 1   
    17     9    10 1   
    18    10    11 ar  
    19    10    12 ar  
    20    11    15 ar  
    21    12    13 ar  
    22    13    14 ar  
    23    13    39 1   
    24    14    15 ar  
    25    14    40 1   
    26    15    16 1   
    27    16    17 ar  
    28    16    18 ar  
    29    17    21 ar  
    30    17    41 1   
    31    18    19 ar  
    32    18    42 1   
    33    19    20 ar  
    34    19    43 1   
    35    20    21 ar  
    36    20    44 1   
    37    21    22 1   
    38    22    23 1   
    39    22    45 1   
    40    23    24 2   
    41    23    25 1   
    42    25    26 1   
    43    25    46 1   
    44    26    27 1   
    45    26    47 1   
    46    26    48 1   
    47    27    28 1   
    48    27    49 1   
    49    27    50 1   
    50    28    29 1   
    51    28    33 1   
    52    29    30 1   
    53    29    51 1   
    54    29    52 1   
    55    30    31 1   
    56    30    53 1   
    57    30    54 1   
    58    31    32 1   
    59    32    33 1   
    60    32    55 1   
    61    32    56 1   
    62    33    57 1   
    63    33    58 1   
@<TRIPOS>SUBSTRUCTURE
     1 B5Z         1 TEMP              0 ****  ****    0 ROOT
