@<TRIPOS>MOLECULE
B60
   22    23     1     0     0
SMALL
No Charge or Current Charge


@<TRIPOS>ATOM
      1 O2           1.6290    -2.5810    -0.1540 o          1 B60      -0.531000
      2 C1           1.2960    -1.4080    -0.0700 c          1 B60       0.617200
      3 C4          -0.0940    -0.9110    -0.1000 cc         1 B60      -0.225600
      4 C7          -0.3230     0.4610     0.0140 cd         1 B60       0.472600
      5 N6           0.7030     1.3830     0.1530 nd         1 B60      -0.778300
      6 C5           1.8860     0.8540     0.1650 cc         1 B60       0.773800
      7 N8           2.8850     1.6980     0.2890 nv         1 B60      -1.059200
      8 N3           2.2070    -0.4330     0.0640 ns         1 B60      -0.452400
      9 N9          -1.1540    -1.8250    -0.2400 ne         1 B60      -0.455300
     10 C10         -2.3910    -1.4020    -0.2680 c2         1 B60       0.327200
     11 C11         -2.7770     0.0770    -0.1520 c6         1 B60       0.141500
     12 N12         -1.6120     1.0040    -0.0040 nh         1 B60      -0.646400
     13 C13         -1.8980     2.4530     0.1170 c3         1 B60       0.209100
     14 HN8          2.5790     2.6570     0.1870 hn         1 B60       0.510500
     15 HN8A         3.7310     1.4710    -0.2180 hn         1 B60       0.510500
     16 H10         -3.1950    -2.1260    -0.3770 h4         1 B60       0.030800
     17 H11         -3.3550     0.3540    -1.0450 h1         1 B60       0.045700
     18 H13         -2.9780     2.6450     0.0790 h1         1 B60       0.046700
     19 H13A        -1.5150     2.8410     1.0690 h1         1 B60       0.046700
     20 H13B        -1.4230     3.0070    -0.7030 h1         1 B60       0.046700
     21 H8           3.1710    -0.7110     0.1180 hn         1 B60       0.324500
     22 H9          -3.4490     0.1920     0.7100 h1         1 B60       0.045700
@<TRIPOS>BOND
     1     1     2 2   
     2     2     3 1   
     3     2     8 1   
     4     3     4 2   
     5     3     9 1   
     6     4     5 1   
     7     4    12 1   
     8     5     6 2   
     9     6     7 1   
    10     6     8 1   
    11     7    14 1   
    12     7    15 1   
    13     8    21 1   
    14     9    10 2   
    15    10    11 1   
    16    10    16 1   
    17    11    12 1   
    18    11    17 1   
    19    11    22 1   
    20    12    13 1   
    21    13    18 1   
    22    13    19 1   
    23    13    20 1   
@<TRIPOS>SUBSTRUCTURE
     1 B60         1 TEMP              0 ****  ****    0 ROOT
