@<TRIPOS>MOLECULE
B60
   22    23     1     0     0
SMALL
abcg2


@<TRIPOS>ATOM
      1 O2           1.5340    -2.5790    -0.1850 o          1 B60      -0.531000
      2 C1           1.1820    -1.4070    -0.1060 c          1 B60       0.617200
      3 C4          -0.1440    -0.9020    -0.0820 cc         1 B60      -0.225600
      4 C7          -0.3470     0.4810     0.0310 cd         1 B60       0.472600
      5 N6           0.6540     1.3710     0.1400 nd         1 B60      -0.778300
      6 C5           1.8800     0.9060     0.1070 cc         1 B60       0.773800
      7 N8           2.9030     1.7540     0.2180 nv         1 B60      -1.059200
      8 N3           2.1610    -0.4090    -0.0320 ns         1 B60      -0.452400
      9 N9          -1.1960    -1.8030    -0.0440 ne         1 B60      -0.455300
     10 C10         -2.3770    -1.3470    -0.1320 c2         1 B60       0.327200
     11 C11         -2.7050     0.0990    -0.3490 c6         1 B60       0.141500
     12 N12         -1.6090     0.9470     0.0820 nh         1 B60      -0.646400
     13 C13         -1.9210     2.3510     0.2020 c3         1 B60       0.209100
     14 HN8          2.7160     2.7400     0.2590 hn         1 B60       0.510500
     15 HN8A         3.8610     1.4580     0.1470 hn         1 B60       0.510500
     16 H10         -3.2100    -2.0420    -0.0760 h4         1 B60       0.030800
     17 H11         -2.9450     0.2770    -1.4100 h1         1 B60       0.045700
     18 H13         -2.7940     2.4680     0.8440 h1         1 B60       0.046700
     19 H13A        -1.0890     2.8930     0.6390 h1         1 B60       0.046700
     20 H13B        -2.1540     2.7920    -0.7720 h1         1 B60       0.046700
     21 H8           3.1240    -0.7160    -0.0610 hn         1 B60       0.324500
     22 H9          -3.6010     0.3680     0.2140 h1         1 B60       0.045700
@<TRIPOS>BOND
     1     1     2 2   
     2     2     3 1   
     3     2     8 1   
     4     3     4 2   
     5     3     9 1   
     6     4     5 1   
     7     4    12 1   
     8     5     6 2   
     9     6     7 1   
    10     6     8 1   
    11     7    14 1   
    12     7    15 1   
    13     8    21 1   
    14     9    10 2   
    15    10    11 1   
    16    10    16 1   
    17    11    12 1   
    18    11    17 1   
    19    11    22 1   
    20    12    13 1   
    21    13    18 1   
    22    13    19 1   
    23    13    20 1   
@<TRIPOS>SUBSTRUCTURE
     1 B60         1 TEMP              0 ****  ****    0 ROOT
