@<TRIPOS>MOLECULE
B61
   35    36     1     0     0
SMALL
No Charge or Current Charge


@<TRIPOS>ATOM
      1 O2           1.4140    -2.1390     2.4220 o          1 B61      -0.531000
      2 C1           1.8190    -1.3160     1.6140 c          1 B61       0.616200
      3 C4           0.9910    -0.2870     0.9530 cc         1 B61      -0.203600
      4 C7           1.5930     0.5840     0.0450 cd         1 B61       0.457600
      5 N6           2.9450     0.5300    -0.2630 nd         1 B61      -0.770300
      6 C5           3.5910    -0.4010     0.3680 cc         1 B61       0.758800
      7 N8           4.8780    -0.4830     0.1080 nv         1 B61      -1.046200
      8 N3           3.1090    -1.2780     1.2460 ns         1 B61      -0.451400
      9 N9          -0.3790    -0.2000     1.2570 ne         1 B61      -0.459300
     10 C10         -1.1460     0.6600     0.6390 c2         1 B61       0.355300
     11 C17         -2.6070     0.7910     1.0430 c3         1 B61      -0.082700
     12 C23         -3.6230     0.1260     0.0750 c3         1 B61       0.200000
     13 O24         -3.5980     0.8250    -1.1670 oh         1 B61      -0.645000
     14 C25         -3.2810    -1.3550    -0.2060 c3         1 B61      -0.125100
     15 C26         -5.0570     0.2490     0.6370 c3         1 B61      -0.125100
     16 C11         -0.6110     1.6310    -0.4300 c6         1 B61       0.138500
     17 N12          0.8700     1.5760    -0.6250 nh         1 B61      -0.644400
     18 C13          1.4730     2.5300    -1.5830 c3         1 B61       0.212100
     19 HN8          5.2100     0.3120    -0.4230 hn         1 B61       0.502000
     20 HN8A         5.4790    -0.7610     0.8730 hn         1 B61       0.502000
     21 H17         -2.7450     0.3510     2.0380 hc         1 B61       0.047700
     22 H17A        -2.8590     1.8530     1.1570 hc         1 B61       0.047700
     23 HO24        -4.3010     0.4350    -1.7280 ho         1 B61       0.438000
     24 H25         -3.2390    -1.9260     0.7290 hc         1 B61       0.042700
     25 H25A        -4.0370    -1.8190    -0.8510 hc         1 B61       0.042700
     26 H25B        -2.3100    -1.4530    -0.7080 hc         1 B61       0.042700
     27 H26         -5.3250     1.2990     0.8040 hc         1 B61       0.042700
     28 H26A        -5.7920    -0.1840    -0.0520 hc         1 B61       0.042700
     29 H26B        -5.1430    -0.2780     1.5960 hc         1 B61       0.042700
     30 H11         -1.1010     1.4060    -1.3870 h1         1 B61       0.046700
     31 H13          0.7180     3.2270    -1.9720 h1         1 B61       0.045033
     32 H13A         2.2610     3.1180    -1.0960 h1         1 B61       0.045033
     33 H13B         1.9120     1.9930    -2.4340 h1         1 B61       0.045033
     34 H16          3.7190    -1.9720     1.6430 hn         1 B61       0.323500
     35 H171        -0.9070     2.6530    -0.1530 h1         1 B61       0.046700
@<TRIPOS>BOND
     1     1     2 2   
     2     2     3 1   
     3     2     8 1   
     4     3     4 2   
     5     3     9 1   
     6     4     5 1   
     7     4    17 1   
     8     5     6 2   
     9     6     7 1   
    10     6     8 1   
    11     7    19 1   
    12     7    20 1   
    13     8    34 1   
    14     9    10 2   
    15    10    11 1   
    16    10    16 1   
    17    11    12 1   
    18    11    21 1   
    19    11    22 1   
    20    12    13 1   
    21    12    14 1   
    22    12    15 1   
    23    13    23 1   
    24    14    24 1   
    25    14    25 1   
    26    14    26 1   
    27    15    27 1   
    28    15    28 1   
    29    15    29 1   
    30    16    17 1   
    31    16    30 1   
    32    16    35 1   
    33    17    18 1   
    34    18    31 1   
    35    18    32 1   
    36    18    33 1   
@<TRIPOS>SUBSTRUCTURE
     1 B61         1 TEMP              0 ****  ****    0 ROOT
