@<TRIPOS>MOLECULE
B61
   35    36     1     0     0
SMALL
abcg2


@<TRIPOS>ATOM
      1 O2           0.9610    -2.7820     0.0500 o          1 B61      -0.531000
      2 C1           1.4670    -1.6660     0.0270 c          1 B61       0.616200
      3 C4           0.8030    -0.4120    -0.0360 cc         1 B61      -0.203600
      4 C7           1.5660     0.7590    -0.0330 cd         1 B61       0.457600
      5 N6           2.9090     0.7790     0.0520 nd         1 B61      -0.770300
      6 C5           3.5230    -0.3760     0.1010 cc         1 B61       0.758800
      7 N8           4.8600    -0.4100     0.1530 nv         1 B61      -1.046200
      8 N3           2.8630    -1.5550     0.0640 ns         1 B61      -0.451400
      9 N9          -0.5800    -0.3890     0.0550 ne         1 B61      -0.459300
     10 C10         -1.1850     0.7110    -0.1240 c2         1 B61       0.355300
     11 C17         -2.6680     0.8840     0.0090 c3         1 B61      -0.082700
     12 C23         -3.5640    -0.3470     0.1490 c3         1 B61       0.200000
     13 O24         -3.3620    -1.1260    -1.0190 oh         1 B61      -0.645000
     14 C25         -3.2550    -1.1560     1.4080 c3         1 B61      -0.125100
     15 C26         -5.0160     0.1350     0.2040 c3         1 B61      -0.125100
     16 C11         -0.4530     1.9710    -0.5210 c6         1 B61       0.138500
     17 N12          0.9210     1.9420    -0.0660 nh         1 B61      -0.644400
     18 C13          1.6230     3.2030    -0.0790 c3         1 B61       0.212100
     19 HN8          5.3440     0.4540     0.3300 hn         1 B61       0.502000
     20 HN8A         5.3510    -1.2570     0.3830 hn         1 B61       0.502000
     21 H17         -2.8460     1.5460     0.8640 hc         1 B61       0.047700
     22 H17A        -3.0100     1.4620    -0.8600 hc         1 B61       0.047700
     23 HO24        -3.9310    -1.9020    -0.9600 ho         1 B61       0.438000
     24 H25         -3.3270    -0.5340     2.3020 hc         1 B61       0.042700
     25 H25A        -3.9770    -1.9690     1.5200 hc         1 B61       0.042700
     26 H25B        -2.2550    -1.5800     1.3660 hc         1 B61       0.042700
     27 H26         -5.2820     0.6900    -0.6980 hc         1 B61       0.042700
     28 H26A        -5.7000    -0.7120     0.2950 hc         1 B61       0.042700
     29 H26B        -5.1860     0.7870     1.0620 hc         1 B61       0.042700
     30 H11         -0.5120     2.1010    -1.6140 h1         1 B61       0.046700
     31 H13          0.9940     3.9610     0.3870 h1         1 B61       0.045033
     32 H13A         2.5510     3.1320     0.4790 h1         1 B61       0.045033
     33 H13B         1.8540     3.5310    -1.0970 h1         1 B61       0.045033
     34 H16          3.3850    -2.4210     0.1010 hn         1 B61       0.323500
     35 H171        -0.9430     2.8440    -0.0840 h1         1 B61       0.046700
@<TRIPOS>BOND
     1     1     2 2   
     2     2     3 1   
     3     2     8 1   
     4     3     4 2   
     5     3     9 1   
     6     4     5 1   
     7     4    17 1   
     8     5     6 2   
     9     6     7 1   
    10     6     8 1   
    11     7    19 1   
    12     7    20 1   
    13     8    34 1   
    14     9    10 2   
    15    10    11 1   
    16    10    16 1   
    17    11    12 1   
    18    11    21 1   
    19    11    22 1   
    20    12    13 1   
    21    12    14 1   
    22    12    15 1   
    23    13    23 1   
    24    14    24 1   
    25    14    25 1   
    26    14    26 1   
    27    15    27 1   
    28    15    28 1   
    29    15    29 1   
    30    16    17 1   
    31    16    30 1   
    32    16    35 1   
    33    17    18 1   
    34    18    31 1   
    35    18    32 1   
    36    18    33 1   
@<TRIPOS>SUBSTRUCTURE
     1 B61         1 TEMP              0 ****  ****    0 ROOT
