@<TRIPOS>MOLECULE
B62
   24    25     1     0     0
SMALL
abcg2


@<TRIPOS>ATOM
      1 O12          0.8970    -2.6530    -0.0580 o          1 B62      -0.554000
      2 C1           0.8790    -1.4240    -0.0080 c          1 B62       0.603200
      3 N2           2.0790    -0.7220    -0.1770 ns         1 B62      -0.445400
      4 C6          -0.2410    -0.5930     0.2310 cc         1 B62      -0.243200
      5 N7          -1.5250    -1.1800     0.3740 nu         1 B62      -0.703200
      6 C8          -2.6110    -0.2590     0.0690 c6         1 B62       0.170500
      7 C11         -2.7570    -0.0830    -1.4360 c3         1 B62      -0.080100
      8 C9          -2.4060     1.0790     0.7890 c6         1 B62       0.194800
      9 N10         -1.1080     1.6020     0.4440 nu         1 B62      -0.817200
     10 C5          -0.0580     0.7850     0.2460 cd         1 B62       0.432600
     11 N4           1.1330     1.3960     0.0290 nd         1 B62      -0.761300
     12 C3           2.1660     0.6270    -0.1730 cc         1 B62       0.736800
     13 N13          3.3700     1.1740    -0.4300 nv         1 B62      -1.040200
     14 HN2          2.9050    -1.2780    -0.3540 hn         1 B62       0.323500
     15 HN7         -1.6490    -1.5750     1.2980 hn         1 B62       0.423000
     16 H8          -3.5300    -0.7030     0.4570 h1         1 B62       0.058700
     17 H11         -2.9960    -1.0360    -1.9070 hc         1 B62       0.041700
     18 H11A        -3.5580     0.6200    -1.6680 hc         1 B62       0.041700
     19 H11B        -1.8420     0.2940    -1.8950 hc         1 B62       0.041700
     20 H9          -3.1670     1.8040     0.5010 h1         1 B62       0.043200
     21 H9A         -2.4990     0.9230     1.8700 h1         1 B62       0.043200
     22 HN10        -0.9370     2.5930     0.4710 hn         1 B62       0.505000
     23 HN13         4.2070     0.6260    -0.3210 hn         1 B62       0.493000
     24 HN1A         3.4690     2.1580    -0.2430 hn         1 B62       0.493000
@<TRIPOS>BOND
     1     1     2 2   
     2     2     3 1   
     3     2     4 1   
     4     3    12 1   
     5     3    14 1   
     6     4     5 1   
     7     4    10 2   
     8     5     6 1   
     9     5    15 1   
    10     6     7 1   
    11     6     8 1   
    12     6    16 1   
    13     7    17 1   
    14     7    18 1   
    15     7    19 1   
    16     8     9 1   
    17     8    20 1   
    18     8    21 1   
    19     9    10 1   
    20     9    22 1   
    21    10    11 1   
    22    11    12 2   
    23    12    13 1   
    24    13    23 1   
    25    13    24 1   
@<TRIPOS>SUBSTRUCTURE
     1 B62         1 TEMP              0 ****  ****    0 ROOT
