@<TRIPOS>MOLECULE
B62
   24    25     1     0     0
SMALL
No Charge or Current Charge


@<TRIPOS>ATOM
      1 O12          1.0020    -2.6260     0.0230 o          1 B62      -0.554000
      2 C1           1.0370    -1.4040     0.0140 c          1 B62       0.603200
      3 N2           2.1920    -0.7240    -0.0930 ns         1 B62      -0.445400
      4 C6          -0.1390    -0.5130     0.1130 cc         1 B62      -0.243200
      5 N7          -1.4250    -1.0790     0.2330 nu         1 B62      -0.703200
      6 C8          -2.6330    -0.2160     0.1610 c6         1 B62       0.170500
      7 C11         -3.2010    -0.2460    -1.2820 c3         1 B62      -0.080100
      8 C9          -2.3130     1.2600     0.6310 c6         1 B62       0.194800
      9 N10         -0.9790     1.7370     0.1710 nu         1 B62      -0.817200
     10 C5           0.0450     0.8610     0.0770 cd         1 B62       0.432600
     11 N4           1.2730     1.4640    -0.0300 nd         1 B62      -0.761300
     12 C3           2.2570     0.6130    -0.1090 cc         1 B62       0.736800
     13 N13          3.4640     1.1360    -0.2120 nv         1 B62      -1.040200
     14 HN2          3.0340    -1.2660    -0.1890 hn         1 B62       0.323500
     15 HN7         -1.5130    -2.0990     0.1840 hn         1 B62       0.423000
     16 H8          -3.4150    -0.6170     0.8230 h1         1 B62       0.058700
     17 H11         -3.4540    -1.2680    -1.5870 hc         1 B62       0.041700
     18 H11A        -4.1140     0.3570    -1.3580 hc         1 B62       0.041700
     19 H11B        -2.4770     0.1510    -2.0050 hc         1 B62       0.041700
     20 H9          -3.1080     1.9380     0.2880 h1         1 B62       0.043200
     21 H9A         -2.3350     1.2780     1.7300 h1         1 B62       0.043200
     22 HN10        -0.6810     2.6920     0.3560 hn         1 B62       0.505000
     23 HN13         4.2200     0.6120     0.2110 hn         1 B62       0.493000
     24 HN1A         3.4840     2.1330    -0.0400 hn         1 B62       0.493000
@<TRIPOS>BOND
     1     1     2 2   
     2     2     3 1   
     3     2     4 1   
     4     3    12 1   
     5     3    14 1   
     6     4     5 1   
     7     4    10 2   
     8     5     6 1   
     9     5    15 1   
    10     6     7 1   
    11     6     8 1   
    12     6    16 1   
    13     7    17 1   
    14     7    18 1   
    15     7    19 1   
    16     8     9 1   
    17     8    20 1   
    18     8    21 1   
    19     9    10 1   
    20     9    22 1   
    21    10    11 1   
    22    11    12 2   
    23    12    13 1   
    24    13    23 1   
    25    13    24 1   
@<TRIPOS>SUBSTRUCTURE
     1 B62         1 TEMP              0 ****  ****    0 ROOT
