@<TRIPOS>MOLECULE
B63
   39    41     1     0     0
SMALL
bcc


@<TRIPOS>ATOM
      1 O3          -6.8560    -2.2400    -0.1130 o          1 B63      -0.835800
      2 C15         -6.8750    -1.0020     0.0530 c          1 B63       0.925200
      3 O2          -7.8880    -0.3020     0.2560 o          1 B63      -0.835800
      4 C12         -5.5430    -0.2830     0.0060 ca         1 B63      -0.166600
      5 C11         -4.3550    -0.9680    -0.2270 ca         1 B63      -0.073000
      6 C10         -3.1270    -0.3230    -0.2670 ca         1 B63      -0.225000
      7 C13         -5.4550     1.0960     0.2030 ca         1 B63      -0.073000
      8 C14         -4.2440     1.7590     0.1660 ca         1 B63      -0.225000
      9 C9          -3.0470     1.0630    -0.0740 ca         1 B63       0.131600
     10 N6          -1.8610     1.7500    -0.1410 nu         1 B63      -0.776600
     11 C2          -0.5860     1.0710    -0.1070 c3         1 B63       0.225800
     12 C1           0.5350     2.0930    -0.1320 c3         1 B63      -0.113700
     13 C3           1.9060     1.4970    -0.1520 c2         1 B63       0.348300
     14 C4           3.0480     2.4750    -0.2990 c6         1 B63       0.146500
     15 N2           4.2630     1.8810     0.2080 nu         1 B63      -0.741000
     16 C5           4.4730     0.5590     0.1170 cc         1 B63       0.446600
     17 N5           5.7340     0.1230     0.2890 nc         1 B63      -0.778300
     18 C8           5.9220    -1.1730     0.2110 cd         1 B63       0.764800
     19 N4           7.1550    -1.6670     0.3420 nv         1 B63      -0.950800
     20 N3           4.9140    -2.0440    -0.0220 ns         1 B63      -0.519400
     21 C7           3.5700    -1.6710    -0.1590 c          1 B63       0.756700
     22 O1           2.7230    -2.5440    -0.3170 o          1 B63      -0.594500
     23 C6           3.3700    -0.2680    -0.0950 cd         1 B63      -0.200600
     24 N1           2.0780     0.2400    -0.1020 nf         1 B63      -0.464300
     25 H11         -4.3840    -2.0400    -0.3760 ha         1 B63       0.140000
     26 H10         -2.2330    -0.9070    -0.4450 ha         1 B63       0.105000
     27 H13         -6.3590     1.6620     0.3900 ha         1 B63       0.140000
     28 H14         -4.2110     2.8320     0.3200 ha         1 B63       0.105000
     29 HN6         -1.8750     2.6510     0.3120 hn         1 B63       0.386800
     30 H2          -0.4850     0.4280     0.7760 h1         1 B63       0.051700
     31 H2A         -0.4960     0.4170    -0.9780 h1         1 B63       0.051700
     32 H1           0.4250     2.7470    -1.0060 hc         1 B63       0.046200
     33 H1A          0.4560     2.7580     0.7370 hc         1 B63       0.046200
     34 HN4          7.9020    -1.0440     0.5920 hn         1 B63       0.450300
     35 HN4A         7.3340    -2.6550     0.3820 hn         1 B63       0.450300
     36 H4           3.1400     2.7600    -1.3570 h1         1 B63       0.045700
     37 H141         5.0690     2.4730     0.3320 hn         1 B63       0.440800
     38 H15          5.1110    -3.0350    -0.0730 hn         1 B63       0.321500
     39 H16          2.8360     3.3920     0.2540 h1         1 B63       0.045700
@<TRIPOS>BOND
     1     1     2 1   
     2     2     3 1   
     3     2     4 1   
     4     4     5 ar  
     5     4     7 ar  
     6     5     6 ar  
     7     5    25 1   
     8     6     9 ar  
     9     6    26 1   
    10     7     8 ar  
    11     7    27 1   
    12     8     9 ar  
    13     8    28 1   
    14     9    10 1   
    15    10    11 1   
    16    10    29 1   
    17    11    12 1   
    18    11    30 1   
    19    11    31 1   
    20    12    13 1   
    21    12    32 1   
    22    12    33 1   
    23    13    14 1   
    24    13    24 2   
    25    14    15 1   
    26    14    36 1   
    27    14    39 1   
    28    15    16 1   
    29    15    37 1   
    30    16    17 1   
    31    16    23 2   
    32    17    18 2   
    33    18    19 1   
    34    18    20 1   
    35    19    34 1   
    36    19    35 1   
    37    20    21 1   
    38    20    38 1   
    39    21    22 2   
    40    21    23 1   
    41    23    24 1   
@<TRIPOS>SUBSTRUCTURE
     1 B63         1 TEMP              0 ****  ****    0 ROOT
