@<TRIPOS>MOLECULE
B63
   39    41     1     0     0
SMALL
No Charge or Current Charge


@<TRIPOS>ATOM
      1 O3          -7.1800    -2.0710    -0.1380 o          1 B63      -0.730500
      2 C15         -7.1050    -0.8520    -0.0920 c          1 B63       0.714600
      3 O2          -8.0900    -0.1280    -0.0640 o          1 B63      -0.730500
      4 C12         -5.7290    -0.2080    -0.0680 ca         1 B63      -0.166600
      5 C11         -4.5580    -1.0010    -0.0990 ca         1 B63      -0.055000
      6 C10         -3.2860    -0.4020    -0.0770 ca         1 B63      -0.207000
      7 C13         -5.5880     1.1980    -0.0140 ca         1 B63      -0.055000
      8 C14         -4.3130     1.7900     0.0070 ca         1 B63      -0.207000
      9 C9          -3.1590     0.9960    -0.0230 ca         1 B63       0.270000
     10 N6          -1.9120     1.6190    -0.0000 nu         1 B63      -0.970200
     11 C2          -0.5880     0.9710    -0.0130 c3         1 B63       0.225800
     12 C1           0.5290     2.0340     0.0230 c3         1 B63      -0.113700
     13 C3           1.9390     1.4660    -0.0020 c2         1 B63       0.348300
     14 C4           3.0940     2.4930    -0.0650 c6         1 B63       0.146500
     15 N2           4.4200     1.8410     0.0650 nu         1 B63      -0.796200
     16 C5           4.5440     0.4960     0.0370 cc         1 B63       0.446600
     17 N5           5.8550     0.1430     0.0110 nc         1 B63      -0.778300
     18 C8           6.0460    -1.1380    -0.0160 cd         1 B63       0.764800
     19 N4           7.3090    -1.5060    -0.0320 nv         1 B63      -1.061200
     20 N3           5.1230    -2.0940    -0.0210 ns         1 B63      -0.452400
     21 C7           3.8000    -1.8310    -0.0060 c          1 B63       0.614200
     22 O1           2.9730    -2.7310    -0.0200 o          1 B63      -0.519000
     23 C6           3.4630    -0.3820     0.0250 cd         1 B63      -0.200600
     24 N1           2.1660     0.1650     0.0420 nf         1 B63      -0.464300
     25 H11         -4.6290    -2.0860    -0.1400 ha         1 B63       0.122000
     26 H10         -2.4050    -1.0370    -0.1010 ha         1 B63       0.087000
     27 H13         -6.4680     1.8390     0.0100 ha         1 B63       0.122000
     28 H14         -4.2280     2.8720     0.0490 ha         1 B63       0.087000
     29 HN6         -1.9280     2.6380     0.0390 hn         1 B63       0.442000
     30 H2          -0.4880     0.3070     0.8580 h1         1 B63       0.051700
     31 H2A         -0.4790     0.3600    -0.9210 h1         1 B63       0.051700
     32 H1           0.4010     2.7060    -0.8330 hc         1 B63       0.046200
     33 H1A          0.4070     2.6460     0.9240 hc         1 B63       0.046200
     34 HN4          7.9350    -0.7350     0.1630 hn         1 B63       0.505500
     35 HN4A         7.5390    -2.3710     0.4410 hn         1 B63       0.505500
     36 H4           3.0340     3.0360    -1.0200 h1         1 B63       0.045700
     37 H141         5.2870     2.3490    -0.1000 hn         1 B63       0.496000
     38 H15          5.3930    -3.0610    -0.0650 hn         1 B63       0.321500
     39 H16          2.9590     3.2320     0.7380 h1         1 B63       0.045700
@<TRIPOS>BOND
     1     1     2 1   
     2     2     3 1   
     3     2     4 1   
     4     4     5 ar  
     5     4     7 ar  
     6     5     6 ar  
     7     5    25 1   
     8     6     9 ar  
     9     6    26 1   
    10     7     8 ar  
    11     7    27 1   
    12     8     9 ar  
    13     8    28 1   
    14     9    10 1   
    15    10    11 1   
    16    10    29 1   
    17    11    12 1   
    18    11    30 1   
    19    11    31 1   
    20    12    13 1   
    21    12    32 1   
    22    12    33 1   
    23    13    14 1   
    24    13    24 2   
    25    14    15 1   
    26    14    36 1   
    27    14    39 1   
    28    15    16 1   
    29    15    37 1   
    30    16    17 1   
    31    16    23 2   
    32    17    18 2   
    33    18    19 1   
    34    18    20 1   
    35    19    34 1   
    36    19    35 1   
    37    20    21 1   
    38    20    38 1   
    39    21    22 2   
    40    21    23 1   
    41    23    24 1   
@<TRIPOS>SUBSTRUCTURE
     1 B63         1 TEMP              0 ****  ****    0 ROOT
