@<TRIPOS>MOLECULE
B64
   32    33     1     0     0
SMALL
abcg2


@<TRIPOS>ATOM
      1 C1           5.1650     1.6130    -0.2770 c          1 B64       0.715200
      2 C2           5.0230     0.1150    -0.1340 ce         1 B64      -0.129200
      3 C3           3.9050    -0.6100    -0.0330 cf         1 B64      -0.382200
      4 O1           5.1740     2.0410    -1.4420 o          1 B64      -0.708000
      5 O2           5.3420     2.2390     0.7810 o          1 B64      -0.708000
      6 O7           2.3490     1.1880    -0.0630 o          1 B64      -0.543100
      7 N8           1.5600    -0.9490    -0.0160 ns         1 B64      -0.394100
      8 C9           0.2030    -0.7330    -0.0300 cc         1 B64       0.179600
      9 C10         -0.7000    -1.7850    -0.0470 cd         1 B64      -0.415600
     10 S11         -2.3310    -1.2270    -0.0670 ss         1 B64       0.239000
     11 C12         -1.8180     0.4100    -0.0300 cd         1 B64      -0.111000
     12 C13         -0.4520     0.5270    -0.0180 cc         1 B64      -0.150000
     13 C14         -0.3890    -3.1990    -0.0590 c          1 B64       0.652700
     14 O15         -1.4830    -3.9450    -0.0800 os         1 B64      -0.444100
     15 C16         -1.3240    -5.3640    -0.0960 c3         1 B64       0.158900
     16 O17          0.7400    -3.6520    -0.0510 o          1 B64      -0.526000
     17 C18         -2.7900     1.4790    -0.0200 cd         1 B64      -0.138000
     18 C19         -4.1260     1.4140     0.2800 cc         1 B64      -0.140000
     19 C20         -4.7720     2.6700     0.1880 cc         1 B64      -0.136000
     20 C21         -3.9230     3.6710    -0.1780 cd         1 B64      -0.266000
     21 S22         -2.3310     3.0950    -0.4220 ss         1 B64       0.274000
     22 CS1          2.5620    -0.0110    -0.0390 c          1 B64       0.621300
     23 H2           5.9610    -0.4350    -0.1180 ha         1 B64       0.144000
     24 H3           3.9770    -1.6900     0.0490 ha         1 B64       0.148000
     25 HN8          1.8300    -1.9250    -0.0120 hn         1 B64       0.349500
     26 H13          0.0620     1.4730     0.0180 ha         1 B64       0.181000
     27 H16         -2.3290    -5.7740    -0.1200 h1         1 B64       0.042700
     28 H16A        -0.7770    -5.6930    -0.9790 h1         1 B64       0.042700
     29 H16B        -0.8110    -5.7150     0.8000 h1         1 B64       0.042700
     30 H19         -4.6290     0.5020     0.5720 ha         1 B64       0.132000
     31 H20         -5.8220     2.8250     0.3890 ha         1 B64       0.125000
     32 H21         -4.1470     4.7160    -0.3200 h4         1 B64       0.145000
@<TRIPOS>BOND
     1     1     2 1   
     2     1     4 1   
     3     1     5 1   
     4     2     3 2   
     5     2    23 1   
     6     3    22 1   
     7     3    24 1   
     8     6    22 2   
     9     7     8 1   
    10     7    22 1   
    11     7    25 1   
    12     8     9 2   
    13     8    12 1   
    14     9    10 1   
    15     9    13 1   
    16    10    11 1   
    17    11    12 2   
    18    11    17 1   
    19    12    26 1   
    20    13    14 1   
    21    13    16 2   
    22    14    15 1   
    23    15    27 1   
    24    15    28 1   
    25    15    29 1   
    26    17    18 2   
    27    17    21 1   
    28    18    19 1   
    29    18    30 1   
    30    19    20 2   
    31    19    31 1   
    32    20    21 1   
    33    20    32 1   
@<TRIPOS>SUBSTRUCTURE
     1 B64         1 TEMP              0 ****  ****    0 ROOT
