@<TRIPOS>MOLECULE
B64
   32    33     1     0     0
SMALL
No Charge or Current Charge


@<TRIPOS>ATOM
      1 C1           5.5960     1.4250    -0.1570 c          1 B64       0.715200
      2 C2           5.0860     0.0020    -0.1340 ce         1 B64      -0.129200
      3 C3           3.8200    -0.5520    -0.1080 cf         1 B64      -0.382200
      4 O1           4.8300     2.3740    -0.1550 o          1 B64      -0.708000
      5 O2           6.8100     1.5680    -0.1780 o          1 B64      -0.708000
      6 O7           2.2790     1.2950    -0.1040 o          1 B64      -0.543100
      7 N8           1.4480    -0.8300    -0.0680 ns         1 B64      -0.394100
      8 C9           0.0730    -0.6590    -0.0480 cc         1 B64       0.179600
      9 C10         -0.7760    -1.7430    -0.0230 cd         1 B64      -0.415600
     10 S11         -2.4820    -1.2570    -0.0020 ss         1 B64       0.239000
     11 C12         -1.9880     0.4420    -0.0280 cd         1 B64      -0.111000
     12 C13         -0.6260     0.5820    -0.0510 cc         1 B64      -0.150000
     13 C14         -0.3670    -3.1620    -0.0140 c          1 B64       0.652700
     14 O15         -1.4230    -4.0310     0.0120 os         1 B64      -0.444100
     15 C16         -1.1430    -5.4430     0.0230 c3         1 B64       0.158900
     16 O17          0.8010    -3.5280    -0.0280 o          1 B64      -0.526000
     17 C18         -2.8740     1.5780    -0.0260 cd         1 B64      -0.138000
     18 C19         -4.2370     1.4330    -0.0030 cc         1 B64      -0.140000
     19 C20         -4.9230     2.6740    -0.0060 cc         1 B64      -0.136000
     20 C21         -4.0920     3.7670    -0.0310 cd         1 B64      -0.266000
     21 S22         -2.3820     3.2860    -0.0520 ss         1 B64       0.274000
     22 CS1          2.4690     0.0930    -0.0940 c          1 B64       0.621300
     23 H2           5.9070    -0.7130    -0.1390 ha         1 B64       0.144000
     24 H3           3.7930    -1.6410    -0.0960 ha         1 B64       0.148000
     25 HN8          1.7690    -1.7900    -0.0620 hn         1 B64       0.349500
     26 H13         -0.1220     1.5390    -0.0690 ha         1 B64       0.181000
     27 H16         -2.0780    -6.0170     0.0440 h1         1 B64       0.042700
     28 H16A        -0.5830    -5.7370    -0.8740 h1         1 B64       0.042700
     29 H16B        -0.5550    -5.7180     0.9080 h1         1 B64       0.042700
     30 H19         -4.7650     0.4840     0.0150 ha         1 B64       0.132000
     31 H20         -6.0080     2.7350     0.0100 ha         1 B64       0.125000
     32 H21         -4.3620     4.8160    -0.0380 h4         1 B64       0.145000
@<TRIPOS>BOND
     1     1     2 1   
     2     1     4 1   
     3     1     5 1   
     4     2     3 2   
     5     2    23 1   
     6     3    22 1   
     7     3    24 1   
     8     6    22 2   
     9     7     8 1   
    10     7    22 1   
    11     7    25 1   
    12     8     9 2   
    13     8    12 1   
    14     9    10 1   
    15     9    13 1   
    16    10    11 1   
    17    11    12 2   
    18    11    17 1   
    19    12    26 1   
    20    13    14 1   
    21    13    16 2   
    22    14    15 1   
    23    15    27 1   
    24    15    28 1   
    25    15    29 1   
    26    17    18 2   
    27    17    21 1   
    28    18    19 1   
    29    18    30 1   
    30    19    20 2   
    31    19    31 1   
    32    20    21 1   
    33    20    32 1   
@<TRIPOS>SUBSTRUCTURE
     1 B64         1 TEMP              0 ****  ****    0 ROOT
