@<TRIPOS>MOLECULE
B65
   41    42     1     0     0
SMALL
No Charge or Current Charge


@<TRIPOS>ATOM
      1 CAL         15.7430    54.7790    40.1790 ca         1 B65      -0.121500
      2 CAH         15.7110    55.9220    40.9980 ca         1 B65      -0.113000
      3 CAG         14.4790    56.4390    41.4340 ca         1 B65      -0.143000
      4 CAI         13.2780    55.8180    41.0490 ca         1 B65      -0.113000
      5 CAM         13.3100    54.6750    40.2300 ca         1 B65      -0.121500
      6 CAU         14.5400    54.1470    39.8030 ca         1 B65       0.140100
      7 OAS         14.5410    53.0370    38.9880 os         1 B65      -0.268200
      8 CAV         15.5000    52.0520    39.0650 ca         1 B65       0.108100
      9 CAO         15.9660    51.4630    37.8790 ca         1 B65      -0.131000
     10 CAN         15.9870    51.6090    40.3090 ca         1 B65      -0.216000
     11 CAJ         16.9540    50.5920    40.3610 ca         1 B65      -0.089000
     12 CAK         17.4280    50.0120    39.1720 ca         1 B65      -0.118000
     13 CAT         16.9370    50.4430    37.9230 ca         1 B65       0.018700
     14 CAQ         17.4430    49.8090    36.6320 c3         1 B65      -0.044100
     15 CAP         18.3720    50.7340    35.8120 c3         1 B65      -0.069400
     16 CAR         19.7100    51.0710    36.5210 c3         1 B65       0.009600
     17 CAW         20.6440    52.0570    35.7500 c3         1 B65      -0.583700
     18 PAX         21.2300    51.4460    34.1470 p5         1 B65       1.335500
     19 OAB         22.4440    52.1240    33.6090 o          1 B65      -0.942500
     20 OAC         21.4540    49.9710    34.2080 o          1 B65      -0.942500
     21 OAA         20.1190    51.7090    33.1850 o          1 B65      -0.942500
     22 SAY         22.0690    52.5360    36.7140 s6         1 B65       1.339600
     23 OAF         22.6120    53.7280    36.0450 o          1 B65      -0.748200
     24 OAE         22.9600    51.3670    36.7300 o          1 B65      -0.748200
     25 OAD         21.5020    52.8500    38.0360 o          1 B65      -0.748200
     26 HAL         16.6980    54.3890    39.8350 ha         1 B65       0.137500
     27 HAH         16.6400    56.4070    41.2910 ha         1 B65       0.099000
     28 HAG         14.4550    57.3240    42.0670 ha         1 B65       0.092000
     29 HAI         12.3250    56.2220    41.3830 ha         1 B65       0.099000
     30 HAM         12.3830    54.1940    39.9290 ha         1 B65       0.137500
     31 HAO         15.5750    51.8010    36.9230 ha         1 B65       0.128000
     32 HAN         15.6160    52.0460    41.2330 ha         1 B65       0.092000
     33 HAJ         17.3340    50.2500    41.3210 ha         1 B65       0.088000
     34 HAK         18.1780    49.2270    39.2200 ha         1 B65       0.126000
     35 HAQ         17.9700    48.8710    36.8440 hc         1 B65       0.026200
     36 HAQA        16.5850    49.5350    36.0050 hc         1 B65       0.026200
     37 HAP         18.5800    50.2360    34.8590 hc         1 B65       0.061200
     38 HAPA        17.8420    51.6640    35.5740 hc         1 B65       0.061200
     39 HAR         19.4530    51.5050    37.4940 hc         1 B65       0.017200
     40 HARA        20.2490    50.1390    36.7340 hc         1 B65       0.017200
     41 HAW         20.0970    52.9830    35.5610 h1         1 B65       0.044700
@<TRIPOS>BOND
     1     1     2 ar  
     2     1     6 ar  
     3     1    26 1   
     4     2     3 ar  
     5     2    27 1   
     6     3     4 ar  
     7     3    28 1   
     8     4     5 ar  
     9     4    29 1   
    10     5     6 ar  
    11     5    30 1   
    12     6     7 1   
    13     7     8 1   
    14     8     9 ar  
    15     8    10 ar  
    16     9    13 ar  
    17     9    31 1   
    18    10    11 ar  
    19    10    32 1   
    20    11    12 ar  
    21    11    33 1   
    22    12    13 ar  
    23    12    34 1   
    24    13    14 1   
    25    14    15 1   
    26    14    35 1   
    27    14    36 1   
    28    15    16 1   
    29    15    37 1   
    30    15    38 1   
    31    16    17 1   
    32    16    39 1   
    33    16    40 1   
    34    17    18 1   
    35    17    22 1   
    36    17    41 1   
    37    18    19 1   
    38    18    20 1   
    39    18    21 1   
    40    22    23 1   
    41    22    24 1   
    42    22    25 1   
@<TRIPOS>SUBSTRUCTURE
     1 B65         1 TEMP              0 ****  ****    0 ROOT
