@<TRIPOS>MOLECULE
B65
   41    42     1     0     0
SMALL
bcc


@<TRIPOS>ATOM
      1 CAL         15.5330    55.3720    40.3320 ca         1 B65      -0.139500
      2 CAH         15.1490    56.1790    41.3940 ca         1 B65      -0.131000
      3 CAG         13.8840    56.0500    41.9530 ca         1 B65      -0.161000
      4 CAI         12.9990    55.1090    41.4460 ca         1 B65      -0.131000
      5 CAM         13.3740    54.2920    40.3870 ca         1 B65      -0.139500
      6 CAU         14.6390    54.4330    39.8350 ca         1 B65       0.140100
      7 OAS         14.9810    53.6650    38.7520 os         1 B65      -0.268200
      8 CAV         15.7960    52.5850    38.9250 ca         1 B65       0.108100
      9 CAO         16.1940    51.9310    37.7650 ca         1 B65      -0.149000
     10 CAN         16.2050    52.1220    40.1710 ca         1 B65      -0.234000
     11 CAJ         17.0200    50.9980    40.2280 ca         1 B65      -0.107000
     12 CAK         17.4180    50.3420    39.0740 ca         1 B65      -0.136000
     13 CAT         17.0040    50.8020    37.8250 ca         1 B65       0.018700
     14 CAQ         17.4100    50.1040    36.5560 c3         1 B65      -0.044100
     15 CAP         18.4210    50.8800    35.7080 c3         1 B65      -0.069400
     16 CAR         19.7790    51.0300    36.3830 c3         1 B65       0.009600
     17 CAW         20.8410    51.7130    35.5140 c3         1 B65      -0.315100
     18 PAX         21.3440    50.6290    34.0150 p5         1 B65       1.177700
     19 OAB         22.6920    51.1410    33.5100 o          1 B65      -0.942500
     20 OAC         21.3840    49.1970    34.5630 o          1 B65      -0.942500
     21 OAA         20.1940    50.8760    33.0250 o          1 B65      -0.942500
     22 SAY         22.2020    52.2740    36.5680 s6         1 B65       1.228800
     23 OAF         23.0360    53.2000    35.7710 o          1 B65      -0.748200
     24 OAE         22.9430    51.0670    37.0100 o          1 B65      -0.748200
     25 OAD         21.5810    52.9830    37.7190 o          1 B65      -0.748200
     26 HAL         16.5160    55.4730    39.8900 ha         1 B65       0.155500
     27 HAH         15.8420    56.9130    41.7830 ha         1 B65       0.117000
     28 HAG         13.5880    56.6840    42.7790 ha         1 B65       0.110000
     29 HAI         12.0110    55.0050    41.8750 ha         1 B65       0.117000
     30 HAM         12.6880    53.5560    39.9860 ha         1 B65       0.155500
     31 HAO         15.8560    52.3060    36.8040 ha         1 B65       0.146000
     32 HAN         15.8980    52.6110    41.0850 ha         1 B65       0.110000
     33 HAJ         17.3400    50.6310    41.1950 ha         1 B65       0.106000
     34 HAK         18.0480    49.4630    39.1410 ha         1 B65       0.144000
     35 HAQ         17.8250    49.1220    36.8000 hc         1 B65       0.026200
     36 HAQA        16.5170    49.9190    35.9540 hc         1 B65       0.026200
     37 HAP         18.5380    50.3770    34.7500 hc         1 B65       0.061200
     38 HAPA        18.0140    51.8710    35.4800 hc         1 B65       0.061200
     39 HAR         19.6360    51.5870    37.3130 hc         1 B65       0.017200
     40 HARA        20.1460    50.0400    36.6660 hc         1 B65       0.017200
     41 HAW         20.4270    52.6510    35.1220 h1         1 B65       0.044700
@<TRIPOS>BOND
     1     1     2 ar  
     2     1     6 ar  
     3     1    26 1   
     4     2     3 ar  
     5     2    27 1   
     6     3     4 ar  
     7     3    28 1   
     8     4     5 ar  
     9     4    29 1   
    10     5     6 ar  
    11     5    30 1   
    12     6     7 1   
    13     7     8 1   
    14     8     9 ar  
    15     8    10 ar  
    16     9    13 ar  
    17     9    31 1   
    18    10    11 ar  
    19    10    32 1   
    20    11    12 ar  
    21    11    33 1   
    22    12    13 ar  
    23    12    34 1   
    24    13    14 1   
    25    14    15 1   
    26    14    35 1   
    27    14    36 1   
    28    15    16 1   
    29    15    37 1   
    30    15    38 1   
    31    16    17 1   
    32    16    39 1   
    33    16    40 1   
    34    17    18 1   
    35    17    22 1   
    36    17    41 1   
    37    18    19 1   
    38    18    20 1   
    39    18    21 1   
    40    22    23 1   
    41    22    24 1   
    42    22    25 1   
@<TRIPOS>SUBSTRUCTURE
     1 B65         1 TEMP              0 ****  ****    0 ROOT
