@<TRIPOS>MOLECULE
B66
   45    46     1     0     0
SMALL
bcc


@<TRIPOS>ATOM
      1 C17         -5.4670    -1.4250    -0.6590 ca         1 B66      -0.209500
      2 C18         -6.8040    -1.1180    -0.5550 ca         1 B66      -0.019500
      3 C21         -7.1840     0.0950     0.0170 ca         1 B66      -0.225200
      4 N19         -8.5860     0.4190     0.1300 no         1 B66       0.321200
      5 O20         -9.3950    -0.3900    -0.2650 o          1 B66      -0.213500
      6 O19         -8.8910     1.4860     0.6160 o          1 B66      -0.213500
      7 C20         -6.2330     0.9920     0.4780 ca         1 B66      -0.019500
      8 C19         -4.8890     0.6840     0.3750 ca         1 B66      -0.209500
      9 C16         -4.4950    -0.5300    -0.1930 ca         1 B66       0.189100
     10 O14         -3.2280    -0.9180    -0.3300 os         1 B66      -0.303900
     11 C13         -2.1890    -0.0780     0.1400 c3         1 B66       0.109400
     12 C11         -0.8590    -0.7860    -0.1190 c3         1 B66       0.131800
     13 O11         -0.7770    -1.9970     0.6040 oh         1 B66      -0.587800
     14 C12         -0.7040    -1.1350    -1.5940 c3         1 B66      -0.082100
     15 C10          0.2780     0.1810     0.3000 c3         1 B66       0.401300
     16 O10          0.0810     0.7530     1.5700 oh         1 B66      -0.610800
     17 N9           1.5290    -0.5020     0.1930 nu         1 B66      -0.804600
     18 C6           2.7400     0.1070     0.1610 ca         1 B66       0.214600
     19 C5           3.8980    -0.6970     0.1430 ca         1 B66      -0.172000
     20 C1           2.8970     1.5000     0.1220 ca         1 B66      -0.188000
     21 C2           4.1560     2.0550     0.0470 ca         1 B66      -0.047000
     22 C3           5.3000     1.2590     0.0230 ca         1 B66      -0.027000
     23 C8           6.5730     1.8870    -0.0490 cg         1 B66       0.227800
     24 N8           7.5900     2.4280    -0.1080 n1         1 B66      -0.339800
     25 C4           5.1500    -0.1360     0.0770 ca         1 B66      -0.111300
     26 C7           6.3700    -1.0090     0.0560 c3         1 B66       0.720200
     27 F2           6.0780    -2.3070     0.1180 f          1 B66      -0.227967
     28 F3           7.0850    -0.8160    -1.0600 f          1 B66      -0.227967
     29 F1           7.1790    -0.7350     1.0870 f          1 B66      -0.227967
     30 H17         -5.1580    -2.3630    -1.0990 ha         1 B66       0.155000
     31 H18         -7.5400    -1.8200    -0.9160 ha         1 B66       0.171000
     32 H20         -6.5230     1.9340     0.9200 ha         1 B66       0.171000
     33 H19         -4.1660     1.4000     0.7390 ha         1 B66       0.155000
     34 H13         -2.2040     0.8840    -0.3830 h1         1 B66       0.055700
     35 H13A        -2.3220     0.1170     1.2090 h1         1 B66       0.055700
     36 HO11        -1.0730    -1.8640     1.5110 ho         1 B66       0.410000
     37 H12         -0.7490    -0.2340    -2.2060 hc         1 B66       0.057700
     38 H12A         0.2530    -1.6190    -1.7860 hc         1 B66       0.057700
     39 H12B        -1.4910    -1.8090    -1.9260 hc         1 B66       0.057700
     40 HN9          1.5180    -1.4980     0.3560 hn         1 B66       0.450800
     41 H5           3.7790    -1.7710     0.1800 ha         1 B66       0.153000
     42 H1           2.0440     2.1620     0.1570 ha         1 B66       0.149000
     43 H2           4.2570     3.1310     0.0150 ha         1 B66       0.149000
     44 H15          0.2660     1.0260    -0.3940 h2         1 B66       0.094700
     45 H16          0.2630     0.0970     2.2530 ho         1 B66       0.413000
@<TRIPOS>BOND
     1     1     2 ar  
     2     1     9 ar  
     3     1    30 1   
     4     2     3 ar  
     5     2    31 1   
     6     3     4 1   
     7     3     7 ar  
     8     4     5 1   
     9     4     6 1   
    10     7     8 ar  
    11     7    32 1   
    12     8     9 ar  
    13     8    33 1   
    14     9    10 1   
    15    10    11 1   
    16    11    12 1   
    17    11    34 1   
    18    11    35 1   
    19    12    13 1   
    20    12    14 1   
    21    12    15 1   
    22    13    36 1   
    23    14    37 1   
    24    14    38 1   
    25    14    39 1   
    26    15    16 1   
    27    15    17 1   
    28    15    44 1   
    29    16    45 1   
    30    17    18 1   
    31    17    40 1   
    32    18    19 ar  
    33    18    20 ar  
    34    19    25 ar  
    35    19    41 1   
    36    20    21 ar  
    37    20    42 1   
    38    21    22 ar  
    39    21    43 1   
    40    22    23 1   
    41    22    25 ar  
    42    23    24 3   
    43    25    26 1   
    44    26    27 1   
    45    26    28 1   
    46    26    29 1   
@<TRIPOS>SUBSTRUCTURE
     1 B66         1 TEMP              0 ****  ****    0 ROOT
