@<TRIPOS>MOLECULE
B66
   45    46     1     0     0
SMALL
No Charge or Current Charge


@<TRIPOS>ATOM
      1 C17         -5.3340    -1.5460    -0.7740 ca         1 B66      -0.191500
      2 C18         -6.7050    -1.2820    -0.9320 ca         1 B66      -0.001500
      3 C21         -7.2360    -0.0330    -0.5340 ca         1 B66      -0.225200
      4 N19         -8.6960     0.2560    -0.6980 no         1 B66       0.701200
      5 O20         -9.4150    -0.6240    -1.1890 o          1 B66      -0.403500
      6 O19         -9.1180     1.3620    -0.3360 o          1 B66      -0.403500
      7 C20         -6.3720     0.9380     0.0220 ca         1 B66      -0.001500
      8 C19         -5.0010     0.6640     0.1750 ca         1 B66      -0.191500
      9 C16         -4.4780    -0.5830    -0.2240 ca         1 B66       0.189100
     10 O14         -3.1430    -0.9060    -0.0980 os         1 B66      -0.327100
     11 C13         -2.1750     0.0150     0.4490 c3         1 B66       0.132600
     12 C11         -0.7540    -0.6390     0.4440 c3         1 B66       0.155000
     13 O11         -0.7720    -1.8460     1.2470 oh         1 B66      -0.650000
     14 C12         -0.3500    -1.0450    -0.9990 c3         1 B66      -0.082100
     15 C10          0.3000     0.3790     1.0400 c3         1 B66       0.424500
     16 O10         -0.0200     0.7480     2.3400 oh         1 B66      -0.673000
     17 N9           1.5820    -0.2270     1.2790 nu         1 B66      -0.998200
     18 C6           2.7820     0.2430     0.7550 ca         1 B66       0.353000
     19 C5           3.6900    -0.6620     0.1890 ca         1 B66      -0.154000
     20 C1           3.0930     1.6060     0.7950 ca         1 B66      -0.170000
     21 C2           4.3070     2.0670     0.2620 ca         1 B66      -0.029000
     22 C3           5.2240     1.1670    -0.3160 ca         1 B66      -0.027000
     23 C8           6.4520     1.7040    -0.8460 cg         1 B66       0.317000
     24 N8           7.4430     2.1510    -1.2720 n1         1 B66      -0.429000
     25 C4           4.9230    -0.2250    -0.3580 ca         1 B66      -0.111300
     26 C7           5.9000    -1.2460    -0.9810 c3         1 B66       0.356300
     27 F2           5.4410    -2.5180    -0.9300 f          1 B66      -0.106667
     28 F3           6.1410    -0.9810    -2.2850 f          1 B66      -0.106667
     29 F1           7.0950    -1.2490    -0.3470 f          1 B66      -0.106667
     30 H17         -4.9310    -2.5080    -1.0820 ha         1 B66       0.137000
     31 H18         -7.3440    -2.0510    -1.3630 ha         1 B66       0.153000
     32 H20         -6.7520     1.9090     0.3380 ha         1 B66       0.153000
     33 H19         -4.3640     1.4310     0.6060 ha         1 B66       0.137000
     34 H13         -2.1450     0.9360    -0.1480 h1         1 B66       0.055700
     35 H13A        -2.4510     0.2870     1.4770 h1         1 B66       0.055700
     36 HO11        -0.8320    -1.5440     2.1810 ho         1 B66       0.449000
     37 H12         -0.3350    -0.1700    -1.6600 hc         1 B66       0.057700
     38 H12A         0.6480    -1.4990    -1.0190 hc         1 B66       0.057700
     39 H12B        -1.0520    -1.7750    -1.4180 hc         1 B66       0.057700
     40 HN9          1.5220    -1.2480     1.2810 hn         1 B66       0.506000
     41 H5           3.4250    -1.7160     0.1730 ha         1 B66       0.135000
     42 H1           2.4010     2.3120     1.2440 ha         1 B66       0.131000
     43 H2           4.5350     3.1310     0.3000 ha         1 B66       0.131000
     44 H15          0.3750     1.2740     0.4020 h2         1 B66       0.094700
     45 H16          0.8480     0.5830     2.7640 ho         1 B66       0.452000
@<TRIPOS>BOND
     1     1     2 ar  
     2     1     9 ar  
     3     1    30 1   
     4     2     3 ar  
     5     2    31 1   
     6     3     4 1   
     7     3     7 ar  
     8     4     5 1   
     9     4     6 1   
    10     7     8 ar  
    11     7    32 1   
    12     8     9 ar  
    13     8    33 1   
    14     9    10 1   
    15    10    11 1   
    16    11    12 1   
    17    11    34 1   
    18    11    35 1   
    19    12    13 1   
    20    12    14 1   
    21    12    15 1   
    22    13    36 1   
    23    14    37 1   
    24    14    38 1   
    25    14    39 1   
    26    15    16 1   
    27    15    17 1   
    28    15    44 1   
    29    16    45 1   
    30    17    18 1   
    31    17    40 1   
    32    18    19 ar  
    33    18    20 ar  
    34    19    25 ar  
    35    19    41 1   
    36    20    21 ar  
    37    20    42 1   
    38    21    22 ar  
    39    21    43 1   
    40    22    23 1   
    41    22    25 ar  
    42    23    24 3   
    43    25    26 1   
    44    26    27 1   
    45    26    28 1   
    46    26    29 1   
@<TRIPOS>SUBSTRUCTURE
     1 B66         1 TEMP              0 ****  ****    0 ROOT
