@<TRIPOS>MOLECULE
B67
   42    43     1     0     0
SMALL
No Charge or Current Charge


@<TRIPOS>ATOM
      1 F1          -5.2630     2.6660     0.5520 f          1 B67      -0.100333
      2 C7          -5.9610     1.5110     0.4530 c3         1 B67       0.367300
      3 F2          -6.6790     1.4130     1.5960 f          1 B67      -0.100333
      4 F3          -6.8400     1.6820    -0.5600 f          1 B67      -0.100333
      5 C4          -5.0520     0.2810     0.2200 ca         1 B67      -0.106300
      6 C5          -3.7190     0.4790    -0.2150 ca         1 B67      -0.137000
      7 C3          -5.4980    -1.0570     0.4390 ca         1 B67      -0.160200
      8 N8          -6.8940    -1.3850     0.8620 no         1 B67       0.695200
      9 O2          -7.0360    -2.2280     1.7580 o          1 B67      -0.380500
     10 O1          -7.8240    -0.9570     0.1700 o          1 B67      -0.380500
     11 C2          -4.6020    -2.1320     0.2500 ca         1 B67      -0.031000
     12 C1          -3.2840    -1.9050    -0.1710 ca         1 B67      -0.124000
     13 C6          -2.8320    -0.5940    -0.4120 ca         1 B67       0.019000
     14 N9          -1.5140    -0.2840    -0.8480 ns         1 B67      -0.140000
     15 C10         -0.3980    -1.0680    -1.1130 c          1 B67       0.574100
     16 O10         -0.3780    -2.2890    -0.9840 o          1 B67      -0.562100
     17 C11          0.8660    -0.2650    -1.5780 c3         1 B67       0.116000
     18 O11          0.6310     1.1680    -1.5910 oh         1 B67      -0.646000
     19 C12          1.2370    -0.6740    -3.0270 c3         1 B67      -0.083100
     20 C13          2.0310    -0.5560    -0.5910 c3         1 B67       0.129600
     21 O14          3.1340     0.3170    -0.9170 os         1 B67      -0.322100
     22 C16          4.3560     0.3270    -0.2520 ca         1 B67       0.046100
     23 C17          4.6820    -0.5080     0.8570 ca         1 B67       0.153500
     24 F17          3.8000    -1.4010     1.3650 f          1 B67      -0.135500
     25 C18          5.9520    -0.4180     1.4590 ca         1 B67       0.110000
     26 F18          6.2570    -1.2140     2.5120 f          1 B67      -0.128500
     27 C19          6.9070     0.4920     0.9760 ca         1 B67       0.144000
     28 F19          8.1260     0.5710     1.5610 f          1 B67      -0.126000
     29 C20          6.5960     1.3190    -0.1150 ca         1 B67       0.110000
     30 F20          7.5160     2.1980    -0.5820 f          1 B67      -0.128500
     31 C21          5.3300     1.2360    -0.7220 ca         1 B67       0.153500
     32 F21          5.0440     2.0410    -1.7740 f          1 B67      -0.135500
     33 H5          -3.3550     1.4870    -0.4050 ha         1 B67       0.141000
     34 H2          -4.9330    -3.1560     0.4180 ha         1 B67       0.155000
     35 H1          -2.6360    -2.7650    -0.3090 ha         1 B67       0.165000
     36 HN9         -1.3490     0.7040    -1.0000 hn         1 B67       0.180000
     37 HO11         1.5200     1.5910    -1.5840 ho         1 B67       0.458000
     38 H12          0.4040    -0.4750    -3.7110 hc         1 B67       0.063700
     39 H12A         2.1110    -0.1170    -3.3870 hc         1 B67       0.063700
     40 H12B         1.4730    -1.7440    -3.0830 hc         1 B67       0.063700
     41 H13          1.6860    -0.3740     0.4360 h1         1 B67       0.060700
     42 H13A         2.3270    -1.6090    -0.6790 h1         1 B67       0.060700
@<TRIPOS>BOND
     1     1     2 1   
     2     2     3 1   
     3     2     4 1   
     4     2     5 1   
     5     5     6 ar  
     6     5     7 ar  
     7     6    13 ar  
     8     6    33 1   
     9     7     8 1   
    10     7    11 ar  
    11     8     9 1   
    12     8    10 1   
    13    11    12 ar  
    14    11    34 1   
    15    12    13 ar  
    16    12    35 1   
    17    13    14 1   
    18    14    15 1   
    19    14    36 1   
    20    15    16 2   
    21    15    17 1   
    22    17    18 1   
    23    17    19 1   
    24    17    20 1   
    25    18    37 1   
    26    19    38 1   
    27    19    39 1   
    28    19    40 1   
    29    20    21 1   
    30    20    41 1   
    31    20    42 1   
    32    21    22 1   
    33    22    23 ar  
    34    22    31 ar  
    35    23    24 1   
    36    23    25 ar  
    37    25    26 1   
    38    25    27 ar  
    39    27    28 1   
    40    27    29 ar  
    41    29    30 1   
    42    29    31 ar  
    43    31    32 1   
@<TRIPOS>SUBSTRUCTURE
     1 B67         1 TEMP              0 ****  ****    0 ROOT
