@<TRIPOS>MOLECULE
B67
   42    43     1     0     0
SMALL
bcc


@<TRIPOS>ATOM
      1 F1          -5.2850     2.6220    -0.6290 f          1 B67      -0.221633
      2 C7          -5.9370     1.4950    -0.3260 c3         1 B67       0.731200
      3 F2          -6.6750     1.7630     0.7540 f          1 B67      -0.221633
      4 F3          -6.7600     1.2480    -1.3450 f          1 B67      -0.221633
      5 C4          -4.9710     0.3610    -0.0780 ca         1 B67      -0.106300
      6 C5          -3.6750     0.5070    -0.5300 ca         1 B67      -0.155000
      7 C3          -5.2910    -0.8010     0.6320 ca         1 B67      -0.160200
      8 N8          -6.6340    -1.0890     1.1040 no         1 B67       0.315200
      9 O2          -6.7440    -1.6500     2.1670 o          1 B67      -0.190500
     10 O1          -7.5610    -0.7830     0.3930 o          1 B67      -0.190500
     11 C2          -4.3270    -1.7590     0.8830 ca         1 B67      -0.049000
     12 C1          -3.0370    -1.6150     0.4080 ca         1 B67      -0.142000
     13 C6          -2.7000    -0.4740    -0.3150 ca         1 B67       0.111600
     14 N9          -1.4440    -0.2130    -0.8370 ns         1 B67      -0.466100
     15 C10         -0.3200    -0.9690    -0.7760 c          1 B67       0.641100
     16 O10         -0.2380    -2.0520    -0.2310 o          1 B67      -0.562100
     17 C11          0.8840    -0.3490    -1.5090 c3         1 B67       0.092800
     18 O11          0.6640     1.0030    -1.8240 oh         1 B67      -0.583800
     19 C12          1.0550    -1.0990    -2.8280 c3         1 B67      -0.083100
     20 C13          2.0980    -0.5140    -0.5950 c3         1 B67       0.106400
     21 O14          3.2190     0.0580    -1.2660 os         1 B67      -0.298900
     22 C16          4.3350     0.1610    -0.5190 ca         1 B67       0.046100
     23 C17          5.2820    -0.8550    -0.5010 ca         1 B67       0.118400
     24 F17          5.0660    -1.9630    -1.2000 f          1 B67      -0.100400
     25 C18          6.4490    -0.7270     0.2280 ca         1 B67       0.074900
     26 F18          7.3490    -1.7040     0.2290 f          1 B67      -0.093400
     27 C19          6.6810     0.4230     0.9590 ca         1 B67       0.108900
     28 F19          7.8000     0.5500     1.6590 f          1 B67      -0.090900
     29 C20          5.7470     1.4420     0.9580 ca         1 B67       0.074900
     30 F20          5.9720     2.5470     1.6590 f          1 B67      -0.093400
     31 C21          4.5840     1.3060     0.2250 ca         1 B67       0.118400
     32 F21          3.6900     2.2880     0.2290 f          1 B67      -0.100400
     33 H5          -3.3880     1.4040    -1.0610 ha         1 B67       0.159000
     34 H2          -4.5810    -2.6510     1.4380 ha         1 B67       0.173000
     35 H1          -2.3160    -2.3900     0.6080 ha         1 B67       0.183000
     36 HN9         -1.3430     0.6610    -1.3360 hn         1 B67       0.346500
     37 HO11         0.8010     1.5540    -1.0440 ho         1 B67       0.419000
     38 H12          0.1630    -0.9970    -3.4460 hc         1 B67       0.063700
     39 H12A         1.9010    -0.7010    -3.3870 hc         1 B67       0.063700
     40 H12B         1.2280    -2.1590    -2.6530 hc         1 B67       0.063700
     41 H13          1.9220    -0.0010     0.3590 h1         1 B67       0.060700
     42 H13A         2.2760    -1.5690    -0.3790 h1         1 B67       0.060700
@<TRIPOS>BOND
     1     1     2 1   
     2     2     3 1   
     3     2     4 1   
     4     2     5 1   
     5     5     6 ar  
     6     5     7 ar  
     7     6    13 ar  
     8     6    33 1   
     9     7     8 1   
    10     7    11 ar  
    11     8     9 1   
    12     8    10 1   
    13    11    12 ar  
    14    11    34 1   
    15    12    13 ar  
    16    12    35 1   
    17    13    14 1   
    18    14    15 1   
    19    14    36 1   
    20    15    16 2   
    21    15    17 1   
    22    17    18 1   
    23    17    19 1   
    24    17    20 1   
    25    18    37 1   
    26    19    38 1   
    27    19    39 1   
    28    19    40 1   
    29    20    21 1   
    30    20    41 1   
    31    20    42 1   
    32    21    22 1   
    33    22    23 ar  
    34    22    31 ar  
    35    23    24 1   
    36    23    25 ar  
    37    25    26 1   
    38    25    27 ar  
    39    27    28 1   
    40    27    29 ar  
    41    29    30 1   
    42    29    31 ar  
    43    31    32 1   
@<TRIPOS>SUBSTRUCTURE
     1 B67         1 TEMP              0 ****  ****    0 ROOT
