@<TRIPOS>MOLECULE
B68
   49    50     1     0     0
SMALL
abcg2


@<TRIPOS>ATOM
      1 C24         10.4430     1.8060    -0.8930 c3         1 B68      -0.182100
      2 C23          9.3050     0.8160    -0.9070 c          1 B68       0.607100
      3 O23          9.3820    -0.2520    -1.4910 o          1 B68      -0.583100
      4 N22          8.2000     1.2340    -0.2420 ns         1 B68      -0.148000
      5 C19          6.9480     0.6110    -0.1360 ca         1 B68      -0.051000
      6 C18          6.7250    -0.7500    -0.3630 ca         1 B68      -0.108500
      7 C17          5.4570    -1.2820    -0.2110 ca         1 B68      -0.142500
      8 C20          5.8700     1.4010     0.2490 ca         1 B68      -0.108500
      9 C21          4.5980     0.8690     0.4080 ca         1 B68      -0.142500
     10 C16          4.3810    -0.4850     0.1730 ca         1 B68       0.110100
     11 O14          3.1850    -1.1010     0.2950 os         1 B68      -0.340100
     12 C13          2.0610    -0.3220     0.6280 c3         1 B68       0.138600
     13 C11          0.8460    -1.2500     0.6550 c3         1 B68       0.115000
     14 O11          0.6520    -1.8810    -0.5870 oh         1 B68      -0.648000
     15 C12          0.9860    -2.3530     1.7020 c3         1 B68      -0.083100
     16 C10         -0.3750    -0.4000     1.0550 c          1 B68       0.573100
     17 O10         -0.3100     0.4310     1.9380 o          1 B68      -0.564100
     18 N9          -1.5040    -0.7060     0.3650 ns         1 B68      -0.141000
     19 C6          -2.7770    -0.1840     0.5110 ca         1 B68       0.020000
     20 C5          -3.7820    -0.7630    -0.2740 ca         1 B68      -0.138000
     21 C1          -3.1130     0.8540     1.3790 ca         1 B68      -0.125000
     22 C2          -4.4210     1.2980     1.4310 ca         1 B68      -0.031000
     23 C3          -5.3950     0.7450     0.6210 ca         1 B68      -0.162200
     24 N8          -6.7160     1.3450     0.6900 no         1 B68       0.695200
     25 O1          -7.1090     1.7060     1.7730 o          1 B68      -0.381500
     26 O2          -7.3300     1.4810    -0.3410 o          1 B68      -0.381500
     27 C4          -5.0850    -0.3100    -0.2430 ca         1 B68      -0.106300
     28 C7          -6.1030    -1.0280    -1.0960 c3         1 B68       0.367300
     29 F2          -5.6540    -2.2310    -1.4680 f          1 B68      -0.100333
     30 F1          -7.2450    -1.2380    -0.4360 f          1 B68      -0.100333
     31 F3          -6.3840    -0.3650    -2.2180 f          1 B68      -0.100333
     32 H24         10.4530     2.3520    -1.8380 hc         1 B68       0.064033
     33 H24A        10.3740     2.5330    -0.0860 hc         1 B68       0.064033
     34 H24B        11.3900     1.2770    -0.8090 hc         1 B68       0.064033
     35 HN22         8.2480     2.1550     0.1650 hn         1 B68       0.148000
     36 H18          7.5320    -1.4030    -0.6520 ha         1 B68       0.130000
     37 H17          5.2990    -2.3380    -0.3890 ha         1 B68       0.125000
     38 H20          6.0150     2.4590     0.4320 ha         1 B68       0.130000
     39 H21          3.8000     1.5320     0.7130 ha         1 B68       0.125000
     40 H13          2.1860     0.1570     1.6020 h1         1 B68       0.054200
     41 H13A         1.9050     0.4700    -0.1180 h1         1 B68       0.054200
     42 HO11         0.7940    -1.2490    -1.3030 ho         1 B68       0.457000
     43 H12          1.1070    -1.9290     2.6980 hc         1 B68       0.062033
     44 H12A         0.0990    -2.9880     1.7090 hc         1 B68       0.062033
     45 H12B         1.8490    -2.9810     1.4890 hc         1 B68       0.062033
     46 HN9         -1.3940    -1.4270    -0.3370 hn         1 B68       0.180000
     47 H5          -3.5160    -1.5960    -0.9100 ha         1 B68       0.142000
     48 H1          -2.3780     1.3230     2.0100 ha         1 B68       0.165000
     49 H2          -4.6650     2.1110     2.0990 ha         1 B68       0.154000
@<TRIPOS>BOND
     1     1     2 1   
     2     1    32 1   
     3     1    33 1   
     4     1    34 1   
     5     2     3 2   
     6     2     4 1   
     7     4     5 1   
     8     4    35 1   
     9     5     6 ar  
    10     5     8 ar  
    11     6     7 ar  
    12     6    36 1   
    13     7    10 ar  
    14     7    37 1   
    15     8     9 ar  
    16     8    38 1   
    17     9    10 ar  
    18     9    39 1   
    19    10    11 1   
    20    11    12 1   
    21    12    13 1   
    22    12    40 1   
    23    12    41 1   
    24    13    14 1   
    25    13    15 1   
    26    13    16 1   
    27    14    42 1   
    28    15    43 1   
    29    15    44 1   
    30    15    45 1   
    31    16    17 2   
    32    16    18 1   
    33    18    19 1   
    34    18    46 1   
    35    19    20 ar  
    36    19    21 ar  
    37    20    27 ar  
    38    20    47 1   
    39    21    22 ar  
    40    21    48 1   
    41    22    23 ar  
    42    22    49 1   
    43    23    24 1   
    44    23    27 ar  
    45    24    25 1   
    46    24    26 1   
    47    27    28 1   
    48    28    29 1   
    49    28    30 1   
    50    28    31 1   
@<TRIPOS>SUBSTRUCTURE
     1 B68         1 TEMP              0 ****  ****    0 ROOT
