@<TRIPOS>MOLECULE
B68
   49    50     1     0     0
SMALL
No Charge or Current Charge


@<TRIPOS>ATOM
      1 C24         10.3950     1.9180    -1.2790 c3         1 B68      -0.182100
      2 C23          9.3230     0.8370    -1.1600 c          1 B68       0.607100
      3 O23          9.5500    -0.3220    -1.4860 o          1 B68      -0.583100
      4 N22          8.1110     1.2970    -0.6610 ns         1 B68      -0.148000
      5 C19          6.8720     0.6480    -0.3940 ca         1 B68      -0.051000
      6 C18          6.6460    -0.7280    -0.6190 ca         1 B68      -0.108500
      7 C17          5.3930    -1.2980    -0.3290 ca         1 B68      -0.142500
      8 C20          5.8240     1.4330     0.1230 ca         1 B68      -0.108500
      9 C21          4.5710     0.8640     0.4130 ca         1 B68      -0.142500
     10 C16          4.3520    -0.5110     0.1860 ca         1 B68       0.110100
     11 O14          3.1460    -1.1280     0.4500 os         1 B68      -0.340100
     12 C13          2.0160    -0.4100     0.9900 c3         1 B68       0.138600
     13 C11          0.8360    -1.4070     1.1700 c3         1 B68       0.115000
     14 O11          0.6710    -2.1390    -0.0730 oh         1 B68      -0.648000
     15 C12          1.1430    -2.4520     2.2730 c3         1 B68      -0.083100
     16 C10         -0.4490    -0.5960     1.5570 c          1 B68       0.573100
     17 O10         -0.4810     0.1370     2.5410 o          1 B68      -0.564100
     18 N9          -1.5200    -0.7650     0.6880 ns         1 B68      -0.141000
     19 C6          -2.8390    -0.2350     0.6680 ca         1 B68       0.020000
     20 C5          -3.6550    -0.5670    -0.4280 ca         1 B68      -0.138000
     21 C1          -3.3640     0.5860     1.6850 ca         1 B68      -0.125000
     22 C2          -4.6750     1.0760     1.5910 ca         1 B68      -0.031000
     23 C3          -5.4910     0.7560     0.4850 ca         1 B68      -0.162200
     24 N8          -6.8660     1.3410     0.4470 no         1 B68       0.695200
     25 O1          -7.5270     1.3130     1.4930 o          1 B68      -0.381500
     26 O2          -7.1920     1.9920    -0.5530 o          1 B68      -0.381500
     27 C4          -4.9860    -0.0960    -0.5430 ca         1 B68      -0.106300
     28 C7          -5.8390    -0.5290    -1.7590 c3         1 B68       0.367300
     29 F2          -5.3240    -1.6040    -2.4020 f          1 B68      -0.100333
     30 F1          -7.0990    -0.8760    -1.4100 f          1 B68      -0.100333
     31 F3          -5.9330     0.4560    -2.6800 f          1 B68      -0.100333
     32 H24         10.0050     2.7400    -1.8900 hc         1 B68       0.064033
     33 H24A        10.5280     2.3960    -0.3030 hc         1 B68       0.064033
     34 H24B        11.3410     1.5330    -1.6750 hc         1 B68       0.064033
     35 HN22         8.1060     2.2860    -0.4450 hn         1 B68       0.148000
     36 H18          7.4230    -1.3740    -1.0150 ha         1 B68       0.130000
     37 H17          5.2280    -2.3580    -0.5050 ha         1 B68       0.125000
     38 H20          5.9790     2.4950     0.3030 ha         1 B68       0.130000
     39 H21          3.7870     1.5030     0.8100 ha         1 B68       0.125000
     40 H13          2.2680     0.0390     1.9600 h1         1 B68       0.054200
     41 H13A         1.7110     0.3940     0.3070 h1         1 B68       0.054200
     42 HO11         1.5810    -2.3170    -0.4050 ho         1 B68       0.457000
     43 H12          1.3250    -1.9620     3.2370 hc         1 B68       0.062033
     44 H12A         0.2990    -3.1420     2.3980 hc         1 B68       0.062033
     45 H12B         2.0300    -3.0460     2.0230 hc         1 B68       0.062033
     46 HN9         -1.3140    -1.3940    -0.0790 hn         1 B68       0.180000
     47 H5          -3.2380    -1.2060    -1.2040 ha         1 B68       0.142000
     48 H1          -2.7760     0.8600     2.5550 ha         1 B68       0.165000
     49 H2          -5.0540     1.7190     2.3840 ha         1 B68       0.154000
@<TRIPOS>BOND
     1     1     2 1   
     2     1    32 1   
     3     1    33 1   
     4     1    34 1   
     5     2     3 2   
     6     2     4 1   
     7     4     5 1   
     8     4    35 1   
     9     5     6 ar  
    10     5     8 ar  
    11     6     7 ar  
    12     6    36 1   
    13     7    10 ar  
    14     7    37 1   
    15     8     9 ar  
    16     8    38 1   
    17     9    10 ar  
    18     9    39 1   
    19    10    11 1   
    20    11    12 1   
    21    12    13 1   
    22    12    40 1   
    23    12    41 1   
    24    13    14 1   
    25    13    15 1   
    26    13    16 1   
    27    14    42 1   
    28    15    43 1   
    29    15    44 1   
    30    15    45 1   
    31    16    17 2   
    32    16    18 1   
    33    18    19 1   
    34    18    46 1   
    35    19    20 ar  
    36    19    21 ar  
    37    20    27 ar  
    38    20    47 1   
    39    21    22 ar  
    40    21    48 1   
    41    22    23 ar  
    42    22    49 1   
    43    23    24 1   
    44    23    27 ar  
    45    24    25 1   
    46    24    26 1   
    47    27    28 1   
    48    28    29 1   
    49    28    30 1   
    50    28    31 1   
@<TRIPOS>SUBSTRUCTURE
     1 B68         1 TEMP              0 ****  ****    0 ROOT
