@<TRIPOS>MOLECULE
B6A
   47    50     1     0     0
SMALL
No Charge or Current Charge


@<TRIPOS>ATOM
      1 CAM         -2.7010     2.5550     0.4480 c6         1 B6A      -0.112400
      2 CAK         -3.1570     3.4170    -0.7540 c6         1 B6A       0.149800
      3 NAQ         -4.3570     2.8310    -1.4000 n7         1 B6A      -0.842400
      4 CAL         -4.1290     1.4430    -1.8710 c6         1 B6A       0.149800
      5 CAN         -3.7000     0.5240    -0.7010 c6         1 B6A      -0.112400
      6 CAX         -2.4440     1.0840     0.0240 c6         1 B6A      -0.086700
      7 CAO         -2.0130     0.2110     1.2390 c3         1 B6A       0.083600
      8 NAY         -1.6200    -1.1710     0.9040 na         1 B6A      -0.210600
      9 CAW         -0.4040    -1.5130     0.3840 ca         1 B6A      -0.109200
     10 CAJ          0.6950    -0.7210     0.0220 ca         1 B6A      -0.062000
     11 CAU         -2.3130    -2.3660     1.0600 cc         1 B6A       0.654700
     12 NAA         -3.5560    -2.4570     1.5480 nv         1 B6A      -1.021200
     13 NAP         -1.6250    -3.4330     0.6710 nd         1 B6A      -0.649100
     14 CAV         -0.4180    -2.8760     0.2450 ca         1 B6A       0.136400
     15 CAI          0.6940    -3.5450    -0.2800 ca         1 B6A      -0.088000
     16 CAH          1.8240    -2.7860    -0.6560 ca         1 B6A      -0.071000
     17 CAT          1.8410    -1.3730    -0.4970 ca         1 B6A      -0.176600
     18 CAR          3.0590    -0.5830    -0.9230 c          1 B6A       0.595300
     19 OAB          3.7700    -0.9840    -1.8380 o          1 B6A      -0.522100
     20 CAS          3.3880     0.7090    -0.2080 ca         1 B6A      -0.166600
     21 CAF          3.1200     0.8730     1.1700 ca         1 B6A      -0.070000
     22 CAD          3.4430     2.0770     1.8200 ca         1 B6A      -0.124000
     23 CAC          4.0470     3.1240     1.1070 ca         1 B6A      -0.091000
     24 CAE          4.3340     2.9650    -0.2580 ca         1 B6A      -0.124000
     25 CAG          4.0130     1.7620    -0.9120 ca         1 B6A      -0.070000
     26 H1          -1.7870     2.9870     0.8800 hc         1 B6A       0.042950
     27 H2          -3.4650     2.5910     1.2370 hc         1 B6A       0.042950
     28 H3          -3.3810     4.4390    -0.4120 h1         1 B6A       0.056950
     29 H4          -2.3390     3.4860    -1.4880 h1         1 B6A       0.056950
     30 H5          -5.1150     2.8110    -0.7060 hn         1 B6A       0.403000
     31 H7          -5.0490     1.0500    -2.3310 h1         1 B6A       0.056950
     32 H8          -3.3470     1.4400    -2.6460 h1         1 B6A       0.056950
     33 H9          -4.5320     0.4240     0.0100 hc         1 B6A       0.042950
     34 H10         -3.4980    -0.4830    -1.0910 hc         1 B6A       0.042950
     35 H11         -1.6020     1.0730    -0.6840 hc         1 B6A       0.069700
     36 H12         -1.1630     0.6960     1.7350 h1         1 B6A       0.060200
     37 H13         -2.8340     0.1830     1.9670 h1         1 B6A       0.060200
     38 H14          0.6580     0.3610     0.1270 ha         1 B6A       0.122000
     39 H15         -4.1310    -1.6270     1.4870 hn         1 B6A       0.484500
     40 H16         -4.0240    -3.3410     1.3880 hn         1 B6A       0.484500
     41 H17          0.6840    -4.6260    -0.3970 ha         1 B6A       0.132000
     42 H18          2.6920    -3.3000    -1.0660 ha         1 B6A       0.130000
     43 H19          2.6710     0.0660     1.7460 ha         1 B6A       0.125000
     44 H20          3.2300     2.1950     2.8810 ha         1 B6A       0.115500
     45 H21          4.2970     4.0550     1.6110 ha         1 B6A       0.113000
     46 H22          4.8080     3.7730    -0.8120 ha         1 B6A       0.115500
     47 H23          4.2420     1.6530    -1.9710 ha         1 B6A       0.125000
@<TRIPOS>BOND
     1     1     2 1   
     2     1     6 1   
     3     1    26 1   
     4     1    27 1   
     5     2     3 1   
     6     2    28 1   
     7     2    29 1   
     8     3     4 1   
     9     3    30 1   
    10     4     5 1   
    11     4    31 1   
    12     4    32 1   
    13     5     6 1   
    14     5    33 1   
    15     5    34 1   
    16     6     7 1   
    17     6    35 1   
    18     7     8 1   
    19     7    36 1   
    20     7    37 1   
    21     8     9 1   
    22     8    11 1   
    23     9    10 ar  
    24     9    14 ar  
    25    10    17 ar  
    26    10    38 1   
    27    11    12 1   
    28    11    13 2   
    29    12    39 1   
    30    12    40 1   
    31    13    14 1   
    32    14    15 ar  
    33    15    16 ar  
    34    15    41 1   
    35    16    17 ar  
    36    16    42 1   
    37    17    18 1   
    38    18    19 2   
    39    18    20 1   
    40    20    21 ar  
    41    20    25 ar  
    42    21    22 ar  
    43    21    43 1   
    44    22    23 ar  
    45    22    44 1   
    46    23    24 ar  
    47    23    45 1   
    48    24    25 ar  
    49    24    46 1   
    50    25    47 1   
@<TRIPOS>SUBSTRUCTURE
     1 B6A         1 TEMP              0 ****  ****    0 ROOT
