@<TRIPOS>MOLECULE
B6A
   47    50     1     0     0
SMALL
abcg2


@<TRIPOS>ATOM
      1 CAM         -2.7620     2.5230     0.3770 c6         1 B6A      -0.112400
      2 CAK         -3.3160     3.3210    -0.8030 c6         1 B6A       0.149800
      3 NAQ         -4.4970     2.7340    -1.4130 n7         1 B6A      -0.842400
      4 CAL         -4.2730     1.3470    -1.7830 c6         1 B6A       0.149800
      5 CAN         -3.7570     0.4720    -0.6420 c6         1 B6A      -0.112400
      6 CAX         -2.4980     1.0710    -0.0200 c6         1 B6A      -0.086700
      7 CAO         -2.0020     0.2800     1.1870 c3         1 B6A       0.083600
      8 NAY         -1.5810    -1.0670     0.8600 na         1 B6A      -0.210600
      9 CAW         -0.3510    -1.4080     0.3380 ca         1 B6A      -0.109200
     10 CAJ          0.7640    -0.6540     0.0480 ca         1 B6A      -0.062000
     11 CAU         -2.2860    -2.2310     0.9600 cc         1 B6A       0.654700
     12 NAA         -3.5210    -2.2870     1.4980 nv         1 B6A      -1.021200
     13 NAP         -1.6150    -3.2870     0.5490 nd         1 B6A      -0.649100
     14 CAV         -0.4020    -2.8020     0.1550 ca         1 B6A       0.136400
     15 CAI          0.7080    -3.4630    -0.3670 ca         1 B6A      -0.088000
     16 CAH          1.8270    -2.7160    -0.6860 ca         1 B6A      -0.071000
     17 CAT          1.8770    -1.3280    -0.4690 ca         1 B6A      -0.176600
     18 CAR          3.1040    -0.5930    -0.8400 c          1 B6A       0.595300
     19 OAB          3.8580    -1.0100    -1.7010 o          1 B6A      -0.522100
     20 CAS          3.4280     0.6790    -0.1330 ca         1 B6A      -0.166600
     21 CAF          3.2100     0.8300     1.2360 ca         1 B6A      -0.070000
     22 CAD          3.5980     1.9940     1.8830 ca         1 B6A      -0.124000
     23 CAC          4.1890     3.0250     1.1650 ca         1 B6A      -0.091000
     24 CAE          4.4080     2.8820    -0.2010 ca         1 B6A      -0.124000
     25 CAG          4.0450     1.7100    -0.8440 ca         1 B6A      -0.070000
     26 H1          -1.8420     2.9910     0.7400 hc         1 B6A       0.042950
     27 H2          -3.4820     2.5500     1.2030 hc         1 B6A       0.042950
     28 H3          -3.5530     4.3400    -0.4880 h1         1 B6A       0.056950
     29 H4          -2.5420     3.4040    -1.5740 h1         1 B6A       0.056950
     30 H5          -5.2660     2.7800    -0.7540 hn         1 B6A       0.403000
     31 H7          -5.2030     0.9340    -2.1790 h1         1 B6A       0.056950
     32 H8          -3.5480     1.3270    -2.6040 h1         1 B6A       0.056950
     33 H9          -4.5390     0.3910     0.1240 hc         1 B6A       0.042950
     34 H10         -3.5730    -0.5360    -1.0260 hc         1 B6A       0.042950
     35 H11         -1.7040     1.0650    -0.7800 hc         1 B6A       0.069700
     36 H12         -1.1510     0.7890     1.6460 h1         1 B6A       0.060200
     37 H13         -2.7710     0.2300     1.9620 h1         1 B6A       0.060200
     38 H14          0.7770     0.4190     0.1920 ha         1 B6A       0.122000
     39 H15         -4.1150    -1.4750     1.4770 hn         1 B6A       0.484500
     40 H16         -4.0110    -3.1570     1.3710 hn         1 B6A       0.484500
     41 H17          0.6960    -4.5350    -0.5180 ha         1 B6A       0.132000
     42 H18          2.6970    -3.2140    -1.0910 ha         1 B6A       0.130000
     43 H19          2.7590     0.0290     1.8070 ha         1 B6A       0.125000
     44 H20          3.4380     2.0960     2.9480 ha         1 B6A       0.115500
     45 H21          4.4840     3.9370     1.6670 ha         1 B6A       0.113000
     46 H22          4.8690     3.6840    -0.7620 ha         1 B6A       0.115500
     47 H23          4.2270     1.5990    -1.9050 ha         1 B6A       0.125000
@<TRIPOS>BOND
     1     1     2 1   
     2     1     6 1   
     3     1    26 1   
     4     1    27 1   
     5     2     3 1   
     6     2    28 1   
     7     2    29 1   
     8     3     4 1   
     9     3    30 1   
    10     4     5 1   
    11     4    31 1   
    12     4    32 1   
    13     5     6 1   
    14     5    33 1   
    15     5    34 1   
    16     6     7 1   
    17     6    35 1   
    18     7     8 1   
    19     7    36 1   
    20     7    37 1   
    21     8     9 1   
    22     8    11 1   
    23     9    10 ar  
    24     9    14 ar  
    25    10    17 ar  
    26    10    38 1   
    27    11    12 1   
    28    11    13 2   
    29    12    39 1   
    30    12    40 1   
    31    13    14 1   
    32    14    15 ar  
    33    15    16 ar  
    34    15    41 1   
    35    16    17 ar  
    36    16    42 1   
    37    17    18 1   
    38    18    19 2   
    39    18    20 1   
    40    20    21 ar  
    41    20    25 ar  
    42    21    22 ar  
    43    21    43 1   
    44    22    23 ar  
    45    22    44 1   
    46    23    24 ar  
    47    23    45 1   
    48    24    25 ar  
    49    24    46 1   
    50    25    47 1   
@<TRIPOS>SUBSTRUCTURE
     1 B6A         1 TEMP              0 ****  ****    0 ROOT
