@<TRIPOS>MOLECULE
B6B
   39    41     1     0     0
SMALL
No Charge or Current Charge


@<TRIPOS>ATOM
      1 CAA          1.2670    -2.3530     2.7180 c3         1 B6B       0.147900
      2 OAP          1.2610    -1.1970     1.8640 os         1 B6B      -0.323100
      3 CAV          2.2800    -0.9270     0.9690 ca         1 B6B       0.136100
      4 CAI          3.4320    -1.7410     0.8850 ca         1 B6B      -0.164000
      5 CAH          4.4690    -1.4070    -0.0020 ca         1 B6B      -0.124000
      6 CAR          4.3710    -0.2610    -0.8040 ca         1 B6B       0.240000
      7 NAB          5.3860     0.0650    -1.6660 nv         1 B6B      -1.056000
      8 CAL          3.2280     0.5500    -0.7220 ca         1 B6B      -0.129000
      9 CAW          2.1540     0.2340     0.1540 cp         1 B6B      -0.128500
     10 CAU          0.9530     1.1310     0.1960 cp         1 B6B       0.287500
     11 NAO         -0.2760     0.5510     0.1290 nb         1 B6B      -0.563000
     12 CAK          1.0770     2.5580     0.2440 ca         1 B6B       0.393900
     13 NAN          0.0090     3.4050     0.2460 nb         1 B6B      -0.748000
     14 CAS         -1.1950     2.8080     0.1910 ca         1 B6B       0.632900
     15 NAC         -2.1840     3.7340     0.1890 nv         1 B6B      -0.738900
     16 CAX         -1.3650     1.3870     0.1240 ca         1 B6B       0.129500
     17 CAQ         -2.7590     0.7820     0.0920 c          1 B6B       0.525200
     18 OAD         -3.7290     1.3730     0.5620 o          1 B6B      -0.565100
     19 CAT         -2.9630    -0.5830    -0.5130 ca         1 B6B      -0.197600
     20 CAG         -3.9850    -1.4320    -0.0390 ca         1 B6B      -0.031000
     21 CAE         -4.1470    -2.6860    -0.6470 ca         1 B6B      -0.182000
     22 CAF         -3.3030    -3.0490    -1.7070 ca         1 B6B       0.352900
     23 NAM         -2.3330    -2.2360    -2.1820 nb         1 B6B      -0.680000
     24 CAJ         -2.1720    -1.0270    -1.5900 ca         1 B6B       0.403900
     25 H1           1.2990    -3.2760     2.1250 h1         1 B6B       0.038367
     26 H2           2.1330    -2.3360     3.3920 h1         1 B6B       0.038367
     27 H3           0.3590    -2.3750     3.3330 h1         1 B6B       0.038367
     28 H4           3.5440    -2.6280     1.5020 ha         1 B6B       0.118000
     29 H5           5.3520    -2.0380    -0.0590 ha         1 B6B       0.113000
     30 H6           5.2780     0.8360    -2.3230 hn         1 B6B       0.436500
     31 H7           6.1710    -0.5700    -1.8020 hn         1 B6B       0.436500
     32 H8           3.1610     1.4300    -1.3570 ha         1 B6B       0.113000
     33 H9           2.0610     3.0230     0.2850 h4         1 B6B       0.032100
     34 H10         -1.9260     4.6840     0.4170 hn         1 B6B       0.356500
     35 H11         -3.1300     3.4250     0.3840 hn         1 B6B       0.356500
     36 H12         -4.6320    -1.1300     0.7830 ha         1 B6B       0.129000
     37 H13         -4.9180    -3.3720    -0.3070 ha         1 B6B       0.125000
     38 H14         -3.4100    -4.0160    -2.1970 h4         1 B6B       0.017100
     39 H15         -1.4000    -0.3940    -2.0250 h4         1 B6B       0.033100
@<TRIPOS>BOND
     1     1     2 1   
     2     1    25 1   
     3     1    26 1   
     4     1    27 1   
     5     2     3 1   
     6     3     4 ar  
     7     3     9 ar  
     8     4     5 ar  
     9     4    28 1   
    10     5     6 ar  
    11     5    29 1   
    12     6     7 1   
    13     6     8 ar  
    14     7    30 1   
    15     7    31 1   
    16     8     9 ar  
    17     8    32 1   
    18     9    10 1   
    19    10    11 ar  
    20    10    12 ar  
    21    11    16 ar  
    22    12    13 ar  
    23    12    33 1   
    24    13    14 ar  
    25    14    15 1   
    26    14    16 ar  
    27    15    34 1   
    28    15    35 1   
    29    16    17 1   
    30    17    18 2   
    31    17    19 1   
    32    19    20 ar  
    33    19    24 ar  
    34    20    21 ar  
    35    20    36 1   
    36    21    22 ar  
    37    21    37 1   
    38    22    23 ar  
    39    22    38 1   
    40    23    24 ar  
    41    24    39 1   
@<TRIPOS>SUBSTRUCTURE
     1 B6B         1 TEMP              0 ****  ****    0 ROOT
