@<TRIPOS>MOLECULE
B6B
   39    41     1     0     0
SMALL
abcg2


@<TRIPOS>ATOM
      1 CAA          0.9340    -2.5380     2.1340 c3         1 B6B       0.147900
      2 OAP          1.0100    -1.2610     1.5450 os         1 B6B      -0.323100
      3 CAV          2.0990    -0.9570     0.8070 ca         1 B6B       0.136100
      4 CAI          3.2230    -1.7690     0.7070 ca         1 B6B      -0.164000
      5 CAH          4.3290    -1.3730    -0.0330 ca         1 B6B      -0.124000
      6 CAR          4.3510    -0.1480    -0.6970 ca         1 B6B       0.240000
      7 NAB          5.4760     0.2790    -1.3910 nv         1 B6B      -1.056000
      8 CAL          3.2140     0.6560    -0.6010 ca         1 B6B      -0.129000
      9 CAW          2.0940     0.2720     0.1290 cp         1 B6B      -0.128500
     10 CAU          0.9300     1.1770     0.1730 cp         1 B6B       0.287500
     11 NAO         -0.2830     0.6970    -0.0130 nb         1 B6B      -0.563000
     12 CAK          1.0790     2.5560     0.3860 ca         1 B6B       0.393900
     13 NAN          0.0690     3.3910     0.3960 nb         1 B6B      -0.748000
     14 CAS         -1.1680     2.9030     0.2020 ca         1 B6B       0.632900
     15 NAC         -2.1660     3.7860     0.2160 nv         1 B6B      -0.738900
     16 CAX         -1.3330     1.5040    -0.0090 ca         1 B6B       0.129500
     17 CAQ         -2.6540     0.8810    -0.1880 c          1 B6B       0.525200
     18 OAD         -3.6860     1.5230    -0.0580 o          1 B6B      -0.565100
     19 CAT         -2.7460    -0.5750    -0.4860 ca         1 B6B      -0.197600
     20 CAG         -3.7700    -1.3070     0.1070 ca         1 B6B      -0.031000
     21 CAE         -3.8990    -2.6520    -0.1940 ca         1 B6B      -0.182000
     22 CAF         -3.0150    -3.2090    -1.1040 ca         1 B6B       0.352900
     23 NAM         -2.0540    -2.5160    -1.7050 nb         1 B6B      -0.680000
     24 CAJ         -1.9190    -1.2350    -1.3940 ca         1 B6B       0.403900
     25 H1           1.0050    -3.3380     1.3910 h1         1 B6B       0.038367
     26 H2           1.7090    -2.6950     2.8900 h1         1 B6B       0.038367
     27 H3          -0.0380    -2.5990     2.6180 h1         1 B6B       0.038367
     28 H4           3.2650    -2.7250     1.2120 ha         1 B6B       0.118000
     29 H5           5.1870    -2.0330    -0.0890 ha         1 B6B       0.113000
     30 H6           5.2850     0.9450    -2.1240 hn         1 B6B       0.436500
     31 H7           6.0560    -0.4680    -1.7410 hn         1 B6B       0.436500
     32 H8           3.1900     1.6000    -1.1350 ha         1 B6B       0.113000
     33 H9           2.0610     2.9800     0.5690 h4         1 B6B       0.032100
     34 H10         -1.9560     4.7570     0.3760 hn         1 B6B       0.356500
     35 H11         -3.1230     3.4880     0.1450 hn         1 B6B       0.356500
     36 H12         -4.4470    -0.8360     0.8080 ha         1 B6B       0.129000
     37 H13         -4.6690    -3.2570     0.2630 ha         1 B6B       0.125000
     38 H14         -3.0890    -4.2600    -1.3640 h4         1 B6B       0.017100
     39 H15         -1.1300    -0.7010    -1.9080 h4         1 B6B       0.033100
@<TRIPOS>BOND
     1     1     2 1   
     2     1    25 1   
     3     1    26 1   
     4     1    27 1   
     5     2     3 1   
     6     3     4 ar  
     7     3     9 ar  
     8     4     5 ar  
     9     4    28 1   
    10     5     6 ar  
    11     5    29 1   
    12     6     7 1   
    13     6     8 ar  
    14     7    30 1   
    15     7    31 1   
    16     8     9 ar  
    17     8    32 1   
    18     9    10 1   
    19    10    11 ar  
    20    10    12 ar  
    21    11    16 ar  
    22    12    13 ar  
    23    12    33 1   
    24    13    14 ar  
    25    14    15 1   
    26    14    16 ar  
    27    15    34 1   
    28    15    35 1   
    29    16    17 1   
    30    17    18 2   
    31    17    19 1   
    32    19    20 ar  
    33    19    24 ar  
    34    20    21 ar  
    35    20    36 1   
    36    21    22 ar  
    37    21    37 1   
    38    22    23 ar  
    39    22    38 1   
    40    23    24 ar  
    41    24    39 1   
@<TRIPOS>SUBSTRUCTURE
     1 B6B         1 TEMP              0 ****  ****    0 ROOT
