@<TRIPOS>MOLECULE
B6C
   42    44     1     0     0
SMALL
bcc


@<TRIPOS>ATOM
      1 C11        -10.3740   -29.5520   -24.8040 ca         1 B6C       0.013900
      2 C02         -8.5690   -30.9890   -25.3590 ca         1 B6C       0.013900
      3 C03         -7.9750   -29.9780   -26.0900 ca         1 B6C      -0.112500
      4 C04         -8.5930   -28.7330   -26.2050 ca         1 B6C       0.031000
      5 C09         -7.8580   -26.3300   -26.6350 cc         1 B6C      -0.060600
      6 C15         -9.8800   -32.2970   -22.7520 ca         1 B6C       0.245600
      7 C16         -8.7800   -31.6930   -22.1370 ca         1 B6C      -0.200000
      8 C17         -8.2950   -32.1610   -20.9290 ca         1 B6C      -0.064000
      9 C18         -8.8940   -33.2390   -20.2910 ca         1 B6C      -0.183000
     10 C19         -9.9770   -33.8520   -20.8950 ca         1 B6C      -0.068000
     11 C20        -10.4710   -33.4130   -22.1230 ca         1 B6C      -0.225600
     12 C21        -11.6430   -34.0880   -22.7450 c          1 B6C       0.699700
     13 CL1         -7.7860   -32.5250   -25.2740 cl         1 B6C      -0.088900
     14 C05         -7.9790   -27.6640   -26.9890 cd         1 B6C      -0.242300
     15 C06         -7.3900   -27.7540   -28.2750 cd         1 B6C       0.346600
     16 N07         -6.9530   -26.5740   -28.6690 nc         1 B6C      -0.518800
     17 N08         -7.2380   -25.7410   -27.6690 na         1 B6C      -0.001600
     18 C10         -9.8120   -28.5370   -25.5570 ca         1 B6C      -0.112500
     19 CL2        -11.8740   -29.2650   -23.9950 cl         1 B6C      -0.088900
     20 C13         -9.7790   -30.8100   -24.6830 ca         1 B6C       0.145600
     21 N14        -10.3710   -31.8400   -23.9580 nu         1 B6C      -0.653000
     22 N22        -11.6120   -35.4280   -22.6560 ns         1 B6C      -0.451400
     23 O23        -12.5420   -33.4820   -23.3150 o          1 B6C      -0.601100
     24 C42         -7.2580   -28.9550   -29.1470 c3         1 B6C      -0.124400
     25 O62        -12.7010   -36.1650   -23.0010 oh         1 B6C      -0.379100
     26 H1          -7.0220   -30.1600   -26.5670 ha         1 B6C       0.153500
     27 H2          -8.3080   -30.8330   -22.5950 ha         1 B6C       0.142000
     28 H3          -7.4470   -31.6640   -20.4750 ha         1 B6C       0.132000
     29 H4          -8.5280   -33.5920   -19.3360 ha         1 B6C       0.137000
     30 H5         -10.4590   -34.6790   -20.3890 ha         1 B6C       0.129000
     31 H7         -10.3300   -27.5910   -25.6440 ha         1 B6C       0.153500
     32 H8         -11.3540   -32.0120   -24.1180 hn         1 B6C       0.479800
     33 H9         -10.8730   -35.9400   -22.1970 hn         1 B6C       0.343500
     34 H10         -7.0930   -28.6590   -30.1820 hc         1 B6C       0.051033
     35 H11         -6.4190   -29.5850   -28.8470 hc         1 B6C       0.051033
     36 H12         -8.1550   -29.5720   -29.1070 hc         1 B6C       0.051033
     37 H13         -9.2830   -25.2150   -25.4860 hc         1 B6C       0.055700
     38 H14         -8.2070   -26.2320   -24.5350 hc         1 B6C       0.055700
     39 H15         -7.6090   -24.7320   -25.2400 hc         1 B6C       0.055700
     40 H16        -12.5780   -36.4160   -23.9270 ho         1 B6C       0.404000
     41 H6          -6.9790   -24.7700   -27.7390 hn         1 B6C       0.321700
     42 C52         -8.2610   -25.5880   -25.4120 c3         1 B6C      -0.036800
@<TRIPOS>BOND
     1     1    18 ar  
     2     1    19 1   
     3     1    20 ar  
     4     2     3 ar  
     5     2    13 1   
     6     2    20 ar  
     7     3     4 ar  
     8     3    26 1   
     9     4    14 1   
    10     4    18 ar  
    11     5    14 2   
    12     5    17 1   
    13     5    42 1   
    14     6     7 ar  
    15     6    11 ar  
    16     6    21 1   
    17     7     8 ar  
    18     7    27 1   
    19     8     9 ar  
    20     8    28 1   
    21     9    10 ar  
    22     9    29 1   
    23    10    11 ar  
    24    10    30 1   
    25    11    12 1   
    26    12    22 1   
    27    12    23 2   
    28    14    15 1   
    29    15    16 2   
    30    15    24 1   
    31    16    17 1   
    32    17    41 1   
    33    18    31 1   
    34    20    21 1   
    35    21    32 1   
    36    22    25 1   
    37    22    33 1   
    38    24    34 1   
    39    24    35 1   
    40    24    36 1   
    41    25    40 1   
    42    37    42 1   
    43    38    42 1   
    44    39    42 1   
@<TRIPOS>SUBSTRUCTURE
     1 B6C         1 TEMP              0 ****  ****    0 ROOT
