@<TRIPOS>MOLECULE
B6C
   42    44     1     0     0
SMALL
No Charge or Current Charge


@<TRIPOS>ATOM
      1 C11        -10.2740   -29.5000   -24.7610 ca         1 B6C       0.105500
      2 C02         -8.3020   -30.8410   -25.2270 ca         1 B6C       0.105500
      3 C03         -7.7910   -29.7950   -26.0150 ca         1 B6C      -0.094500
      4 C04         -8.4980   -28.5880   -26.1840 ca         1 B6C       0.031000
      5 C09         -8.2030   -26.1430   -26.8810 cc         1 B6C      -0.111300
      6 C15         -9.6420   -32.4690   -22.6850 ca         1 B6C       0.384000
      7 C16         -8.4220   -32.1140   -22.0820 ca         1 B6C      -0.182000
      8 C17         -7.9140   -32.8440   -21.0000 ca         1 B6C      -0.046000
      9 C18         -8.6370   -33.9330   -20.5030 ca         1 B6C      -0.165000
     10 C19         -9.8680   -34.2850   -21.0770 ca         1 B6C      -0.050000
     11 C20        -10.3970   -33.5540   -22.1720 ca         1 B6C      -0.225600
     12 C21        -11.7450   -33.9260   -22.7620 c          1 B6C       0.632700
     13 Cl1         -7.3610   -32.3390   -25.1510 cl         1 B6C      -0.180500
     14 C05         -7.9440   -27.4890   -27.0130 cd         1 B6C      -0.177000
     15 C06         -7.1730   -27.6180   -28.2080 cd         1 B6C       0.281300
     16 N07         -6.8950   -26.4590   -28.7720 nc         1 B6C      -0.518800
     17 N08         -7.5240   -25.5540   -27.9430 na         1 B6C      -0.001200
     18 C10         -9.7500   -28.4610   -25.5480 ca         1 B6C      -0.094500
     19 Cl2        -11.8620   -29.2670   -24.0170 cl         1 B6C      -0.180500
     20 C13         -9.5510   -30.7010   -24.5670 ca         1 B6C       0.284000
     21 N14        -10.1070   -31.7250   -23.7660 nu         1 B6C      -0.985000
     22 N22        -12.2390   -35.1840   -22.4270 ns         1 B6C      -0.384400
     23 O23        -12.3950   -33.1670   -23.4750 o          1 B6C      -0.601100
     24 C42         -6.7220   -28.8800   -28.8980 c3         1 B6C      -0.124400
     25 O62        -13.6190   -35.5460   -22.6920 oh         1 B6C      -0.418100
     26 H1          -6.8160   -29.9280   -26.4710 ha         1 B6C       0.135500
     27 H2          -7.8590   -31.2630   -22.4510 ha         1 B6C       0.124000
     28 H3          -6.9650   -32.5630   -20.5460 ha         1 B6C       0.114000
     29 H4          -8.2490   -34.5010   -19.6590 ha         1 B6C       0.119000
     30 H5         -10.4080   -35.1200   -20.6380 ha         1 B6C       0.111000
     31 H7         -10.3510   -27.5700   -25.6880 ha         1 B6C       0.135500
     32 H8         -11.1170   -31.8620   -23.9010 hn         1 B6C       0.535000
     33 H9         -11.7520   -35.7460   -21.7340 hn         1 B6C       0.343500
     34 H10         -6.5460   -28.7100   -29.9670 hc         1 B6C       0.051033
     35 H11         -5.7860   -29.2500   -28.4660 hc         1 B6C       0.051033
     36 H12         -7.4780   -29.6690   -28.8170 hc         1 B6C       0.051033
     37 H13        -10.0020   -25.2600   -26.0740 hc         1 B6C       0.055700
     38 H14         -8.8510   -25.8290   -24.8420 hc         1 B6C       0.055700
     39 H15         -8.5290   -24.3410   -25.7350 hc         1 B6C       0.055700
     40 H16        -13.5460   -36.4030   -23.1740 ho         1 B6C       0.443000
     41 H6          -7.4790   -24.5540   -28.1330 hn         1 B6C       0.372000
     42 C52         -8.9380   -25.3540   -25.8260 c3         1 B6C      -0.036800
@<TRIPOS>BOND
     1     1    18 ar  
     2     1    19 1   
     3     1    20 ar  
     4     2     3 ar  
     5     2    13 1   
     6     2    20 ar  
     7     3     4 ar  
     8     3    26 1   
     9     4    14 1   
    10     4    18 ar  
    11     5    14 2   
    12     5    17 1   
    13     5    42 1   
    14     6     7 ar  
    15     6    11 ar  
    16     6    21 1   
    17     7     8 ar  
    18     7    27 1   
    19     8     9 ar  
    20     8    28 1   
    21     9    10 ar  
    22     9    29 1   
    23    10    11 ar  
    24    10    30 1   
    25    11    12 1   
    26    12    22 1   
    27    12    23 2   
    28    14    15 1   
    29    15    16 2   
    30    15    24 1   
    31    16    17 1   
    32    17    41 1   
    33    18    31 1   
    34    20    21 1   
    35    21    32 1   
    36    22    25 1   
    37    22    33 1   
    38    24    34 1   
    39    24    35 1   
    40    24    36 1   
    41    25    40 1   
    42    37    42 1   
    43    38    42 1   
    44    39    42 1   
@<TRIPOS>SUBSTRUCTURE
     1 B6C         1 TEMP              0 ****  ****    0 ROOT
