@<TRIPOS>MOLECULE
B6D
   35    35     1     0     0
SMALL
No Charge or Current Charge


@<TRIPOS>ATOM
      1 C1         -19.6560     4.0160    12.8350 c6         1 B6D       0.383300
      2 N2         -18.8330     2.0070    14.1520 ns         1 B6D      -0.493900
      3 C3         -18.9950     1.8810    11.6520 c6         1 B6D       0.145300
      4 C4         -19.7690     2.4110    10.4070 c6         1 B6D       0.048700
      5 C5         -19.8560     3.9670    10.4380 c6         1 B6D       0.172300
      6 C6         -20.7570     4.5470     9.3190 c3         1 B6D      -0.085100
      7 C7         -19.3560     1.7440    15.3970 c          1 B6D       0.615100
      8 C8         -18.3290     1.3400    16.4470 c3         1 B6D      -0.179100
      9 C9         -17.7950     1.4740     7.2050 c3         1 B6D      -0.183100
     10 C2         -19.6050     2.4570    12.9660 c6         1 B6D       0.085700
     11 O7         -20.5520     1.8130    15.6400 o          1 B6D      -0.593100
     12 N4         -19.2500     1.8620     9.1290 ns         1 B6D      -0.511900
     13 C10        -18.0270     2.1360     8.5550 c          1 B6D       0.598100
     14 O10        -17.1930     2.8490     9.0890 o          1 B6D      -0.609100
     15 O5         -20.4260     4.3960    11.6920 os         1 B6D      -0.486000
     16 O3         -19.0040     0.4420    11.6680 oh         1 B6D      -0.641000
     17 H2         -20.6380     2.0920    13.0550 h1         1 B6D       0.120700
     18 H1         -18.6390     4.4250    12.7500 h2         1 B6D       0.013700
     19 H3         -17.9570     2.2360    11.5810 h1         1 B6D       0.049700
     20 HN2        -17.8320     1.8850    14.0540 hn         1 B6D       0.306500
     21 H5         -18.8520     4.4060    10.3390 h1         1 B6D       0.060700
     22 H81        -17.5640     2.1210    16.5160 hc         1 B6D       0.058367
     23 H83        -17.7550     0.4840    16.0740 hc         1 B6D       0.058367
     24 H82        -18.7820     1.1290    17.4220 hc         1 B6D       0.058367
     25 H4         -20.8020     2.0430    10.4980 h1         1 B6D       0.076700
     26 HN4        -19.8670     1.2670     8.5840 hn         1 B6D       0.318500
     27 H9         -17.9440     0.3930     7.3060 hc         1 B6D       0.062700
     28 H9A        -16.8110     1.7090     6.7840 hc         1 B6D       0.062700
     29 H9B        -18.6050     1.7590     6.5250 hc         1 B6D       0.062700
     30 H62        -20.8340     5.6370     9.4050 hc         1 B6D       0.047033
     31 H6A        -20.3490     4.3240     8.3260 hc         1 B6D       0.047033
     32 H61        -21.7700     4.1320     9.3670 hc         1 B6D       0.047033
     33 O1         -20.3250     4.6220    13.9200 oh         1 B6D      -0.621000
     34 HO3        -18.7300     0.1560    10.7700 ho         1 B6D       0.446000
     35 HO1        -20.9720     5.2090    13.4780 ho         1 B6D       0.456000
@<TRIPOS>BOND
     1     1    10 1   
     2     1    15 1   
     3     1    18 1   
     4     1    33 1   
     5     2     7 1   
     6     2    10 1   
     7     2    20 1   
     8     3     4 1   
     9     3    10 1   
    10     3    16 1   
    11     3    19 1   
    12     4     5 1   
    13     4    12 1   
    14     4    25 1   
    15     5     6 1   
    16     5    15 1   
    17     5    21 1   
    18     6    30 1   
    19     6    31 1   
    20     6    32 1   
    21     7     8 1   
    22     7    11 2   
    23     8    22 1   
    24     8    23 1   
    25     8    24 1   
    26     9    13 1   
    27     9    27 1   
    28     9    28 1   
    29     9    29 1   
    30    10    17 1   
    31    12    13 1   
    32    12    26 1   
    33    13    14 2   
    34    16    34 1   
    35    33    35 1   
@<TRIPOS>SUBSTRUCTURE
     1 B6D         1 TEMP              0 ****  ****    0 ROOT
