@<TRIPOS>MOLECULE
B6D
   35    35     1     0     0
SMALL
bcc


@<TRIPOS>ATOM
      1 C1         -19.7530     4.0200    12.7850 c6         1 B6D       0.336900
      2 N2         -18.8570     2.1350    14.0660 ns         1 B6D      -0.560900
      3 C3         -19.0250     1.9220    11.6390 c6         1 B6D       0.122100
      4 C4         -19.8030     2.4300    10.4170 c6         1 B6D       0.048700
      5 C5         -19.8970     3.9640    10.4310 c6         1 B6D       0.149100
      6 C6         -20.7330     4.5110     9.2940 c3         1 B6D      -0.085100
      7 C7         -19.3650     1.5770    15.1810 c          1 B6D       0.682100
      8 C8         -18.3600     1.3010    16.2730 c3         1 B6D      -0.179100
      9 C9         -17.8170     1.4520     7.3150 c3         1 B6D      -0.183100
     10 C2         -19.6380     2.4990    12.9130 c6         1 B6D       0.085700
     11 O7         -20.5470     1.2970    15.3150 o          1 B6D      -0.593100
     12 N4         -19.2910     1.8790     9.1770 ns         1 B6D      -0.578900
     13 C10        -18.0910     2.1480     8.6250 c          1 B6D       0.665100
     14 O10        -17.2670     2.8940     9.1360 o          1 B6D      -0.609100
     15 O5         -20.5120     4.3470    11.6480 os         1 B6D      -0.439600
     16 O3         -19.0640     0.5230    11.7380 oh         1 B6D      -0.578800
     17 H2         -20.6440     2.0910    13.0430 h1         1 B6D       0.120700
     18 H1         -18.7390     4.4480    12.6780 h2         1 B6D       0.013700
     19 H3         -17.9890     2.2830    11.5630 h1         1 B6D       0.049700
     20 HN2        -17.8700     2.3400    14.0390 hn         1 B6D       0.306500
     21 H5         -18.8890     4.3930    10.3790 h1         1 B6D       0.060700
     22 H81        -17.3480     1.6210    16.0320 hc         1 B6D       0.058367
     23 H83        -18.3420     0.2320    16.4850 hc         1 B6D       0.058367
     24 H82        -18.6730     1.8060    17.1860 hc         1 B6D       0.058367
     25 H4         -20.8270     2.0510    10.4990 h1         1 B6D       0.076700
     26 HN4        -19.9130     1.2750     8.6670 hn         1 B6D       0.318500
     27 H9         -16.9440     0.8090     7.4260 hc         1 B6D       0.062700
     28 H9A        -17.5760     2.1970     6.5570 hc         1 B6D       0.062700
     29 H9B        -18.6460     0.8470     6.9530 hc         1 B6D       0.062700
     30 H62        -20.8190     5.5950     9.3700 hc         1 B6D       0.047033
     31 H6A        -20.2720     4.2850     8.3340 hc         1 B6D       0.047033
     32 H61        -21.7360     4.0830     9.2980 hc         1 B6D       0.047033
     33 O1         -20.3950     4.5100    13.8990 oh         1 B6D      -0.558800
     34 HO3        -18.5680     0.1520    11.0020 ho         1 B6D       0.407000
     35 HO1        -20.2210     5.4530    13.9820 ho         1 B6D       0.417000
@<TRIPOS>BOND
     1     1    10 1   
     2     1    15 1   
     3     1    18 1   
     4     1    33 1   
     5     2     7 1   
     6     2    10 1   
     7     2    20 1   
     8     3     4 1   
     9     3    10 1   
    10     3    16 1   
    11     3    19 1   
    12     4     5 1   
    13     4    12 1   
    14     4    25 1   
    15     5     6 1   
    16     5    15 1   
    17     5    21 1   
    18     6    30 1   
    19     6    31 1   
    20     6    32 1   
    21     7     8 1   
    22     7    11 2   
    23     8    22 1   
    24     8    23 1   
    25     8    24 1   
    26     9    13 1   
    27     9    27 1   
    28     9    28 1   
    29     9    29 1   
    30    10    17 1   
    31    12    13 1   
    32    12    26 1   
    33    13    14 2   
    34    16    34 1   
    35    33    35 1   
@<TRIPOS>SUBSTRUCTURE
     1 B6D         1 TEMP              0 ****  ****    0 ROOT
