@<TRIPOS>MOLECULE
B6E
   56    60     1     0     0
SMALL
No Charge or Current Charge


@<TRIPOS>ATOM
      1 C1          10.6580    -2.1780    -0.4190 cc         1 B6E      -0.082000
      2 C2           9.3290    -1.8770    -0.5580 cd         1 B6E       0.037500
      3 C3           8.6480    -0.6580    -0.0340 c          1 B6E       0.560600
      4 C4           6.3960     0.3330    -0.0000 cc         1 B6E       0.490400
      5 C5           4.5340     1.3970     0.1650 ca         1 B6E       0.096400
      6 C6           3.1980     1.8130     0.0850 ca         1 B6E      -0.061000
      7 C7           2.8410     3.0400     0.6960 ca         1 B6E       0.074100
      8 F1          -8.8100    -1.0260    -3.0710 f          1 B6E      -0.111333
      9 C8           3.8210     3.8270     1.3480 ca         1 B6E      -0.112000
     10 C9           5.1600     3.3870     1.4150 ca         1 B6E      -0.097000
     11 C10          5.4630     2.1630     0.8080 ca         1 B6E      -0.082200
     12 O1          -4.5520     0.8870    -0.4910 o          1 B6E      -0.598100
     13 C11          0.4480     2.6840     0.7270 ca         1 B6E       0.129100
     14 C12         -0.6740     2.9580    -0.0680 ca         1 B6E      -0.144000
     15 C13         -1.8160     2.1400     0.0080 ca         1 B6E      -0.091000
     16 C14         -1.8460     1.0380     0.8930 ca         1 B6E      -0.063000
     17 C15         -0.7190     0.7800     1.6990 ca         1 B6E      -0.091000
     18 F2         -10.5390    -0.9710    -1.7550 f          1 B6E      -0.111333
     19 C16          0.4210     1.5990     1.6210 ca         1 B6E      -0.144000
     20 O2           9.2160     0.2280     0.5950 o          1 B6E      -0.588100
     21 C17         -4.1950     0.1120     0.3880 c          1 B6E       0.663100
     22 C18         -6.2820    -1.3930     0.5400 ca         1 B6E      -0.048000
     23 C19         -7.0880    -0.8050    -0.4620 ca         1 B6E      -0.052000
     24 C20         -8.3800    -1.3050    -0.7420 ca         1 B6E      -0.190300
     25 O3           8.6550    -2.8560    -1.2640 os         1 B6E      -0.236000
     26 C21         -8.8620    -2.4160    -0.0170 ca         1 B6E      -0.058000
     27 C22         -8.0680    -3.0060     0.9780 ca         1 B6E      -0.135000
     28 C23         -6.7920    -2.4970     1.2540 ca         1 B6E       0.144000
     29 C24         -9.2270    -0.6500    -1.8410 c3         1 B6E       0.360300
     30 C25          9.6250    -3.7890    -1.5610 cd         1 B6E       0.163900
     31 F3          -9.1560     0.7000    -1.7950 f          1 B6E      -0.111333
     32 N            7.3070    -0.6290    -0.3280 ns         1 B6E      -0.400400
     33 C           10.8460    -3.4130    -1.0680 cc         1 B6E      -0.202000
     34 O            1.5470     3.5090     0.6400 os         1 B6E      -0.249200
     35 F           -6.0450    -3.0840     2.2180 f          1 B6E      -0.180000
     36 N1           5.1050     0.2370    -0.3540 nd         1 B6E      -0.623100
     37 N2           6.6460     1.4980     0.7100 na         1 B6E      -0.314600
     38 N3          -2.9640     0.1650     1.0280 ns         1 B6E      -0.163000
     39 N4          -4.9730    -0.9320     0.8700 ns         1 B6E      -0.167000
     40 H2          11.4200    -1.5910     0.0870 ha         1 B6E       0.161000
     41 H4           2.4640     1.2060    -0.4370 ha         1 B6E       0.146000
     42 H5           3.5380     4.7730     1.8030 ha         1 B6E       0.129000
     43 H6           5.9240     3.9780     1.9160 ha         1 B6E       0.125000
     44 H7          -0.6570     3.8060    -0.7490 ha         1 B6E       0.131500
     45 H8          -2.6620     2.3840    -0.6260 ha         1 B6E       0.123500
     46 H9          -0.7250    -0.0580     2.3920 ha         1 B6E       0.123500
     47 H10          1.2780     1.3920     2.2580 ha         1 B6E       0.131500
     48 H13         -6.7270     0.0420    -1.0390 ha         1 B6E       0.160000
     49 H14         -9.8490    -2.8300    -0.2200 ha         1 B6E       0.138000
     50 H15         -8.4410    -3.8610     1.5370 ha         1 B6E       0.139000
     51 H16          9.3260    -4.6650    -2.1210 h4         1 B6E       0.062100
     52 H3           6.9640    -1.4210    -0.8510 hn         1 B6E       0.366500
     53 H1          11.7830    -3.9550    -1.1540 ha         1 B6E       0.153000
     54 H            7.5490     1.7740     1.0730 hn         1 B6E       0.389000
     55 H11         -2.8320    -0.5540     1.7260 hn         1 B6E       0.149000
     56 H12         -4.5280    -1.4750     1.5990 hn         1 B6E       0.159000
@<TRIPOS>BOND
     1     1     2 2   
     2     1    33 1   
     3     1    40 1   
     4     2     3 1   
     5     2    25 1   
     6     3    20 2   
     7     3    32 1   
     8     4    32 1   
     9     4    36 2   
    10     4    37 1   
    11     5     6 ar  
    12     5    11 ar  
    13     5    36 1   
    14     6     7 ar  
    15     6    41 1   
    16     7     9 ar  
    17     7    34 1   
    18     8    29 1   
    19     9    10 ar  
    20     9    42 1   
    21    10    11 ar  
    22    10    43 1   
    23    11    37 1   
    24    12    21 2   
    25    13    14 ar  
    26    13    19 ar  
    27    13    34 1   
    28    14    15 ar  
    29    14    44 1   
    30    15    16 ar  
    31    15    45 1   
    32    16    17 ar  
    33    16    38 1   
    34    17    19 ar  
    35    17    46 1   
    36    18    29 1   
    37    19    47 1   
    38    21    38 1   
    39    21    39 1   
    40    22    23 ar  
    41    22    28 ar  
    42    22    39 1   
    43    23    24 ar  
    44    23    48 1   
    45    24    26 ar  
    46    24    29 1   
    47    25    30 1   
    48    26    27 ar  
    49    26    49 1   
    50    27    28 ar  
    51    27    50 1   
    52    28    35 1   
    53    29    31 1   
    54    30    33 2   
    55    30    51 1   
    56    32    52 1   
    57    33    53 1   
    58    37    54 1   
    59    38    55 1   
    60    39    56 1   
@<TRIPOS>SUBSTRUCTURE
     1 B6E         1 TEMP              0 ****  ****    0 ROOT
