@<TRIPOS>MOLECULE
B6E
   56    60     1     0     0
SMALL
bcc


@<TRIPOS>ATOM
      1 C1          11.1390    -1.7070     0.2250 cc         1 B6E      -0.165300
      2 C2           9.8990    -1.4670    -0.2800 cd         1 B6E       0.147200
      3 C3           8.8320    -0.6060     0.2200 c          1 B6E       0.627600
      4 C4           6.5690     0.1600    -0.2730 cc         1 B6E       0.490400
      5 C5           4.6290     0.9860    -0.4710 ca         1 B6E       0.096400
      6 C6           3.3480     1.3490    -0.8790 ca         1 B6E      -0.079000
      7 C7           2.6630     2.2470    -0.0830 ca         1 B6E       0.074100
      8 F1          -8.5630    -0.4450    -2.8290 f          1 B6E      -0.232633
      9 C8           3.2050     2.7750     1.0940 ca         1 B6E      -0.130000
     10 C9           4.4780     2.4170     1.5080 ca         1 B6E      -0.115000
     11 C10          5.1710     1.5220     0.7090 ca         1 B6E      -0.082200
     12 O1          -4.4450     0.3460    -0.4260 o          1 B6E      -0.598100
     13 C11          0.3120     2.0670     0.0370 ca         1 B6E       0.129100
     14 C12         -0.9160     2.6130    -0.3250 ca         1 B6E      -0.162000
     15 C13         -2.0940     2.0650     0.1490 ca         1 B6E      -0.109000
     16 C14         -2.0650     0.9460     0.9800 ca         1 B6E       0.029600
     17 C15         -0.8350     0.4080     1.3350 ca         1 B6E      -0.109000
     18 F2         -10.4180    -0.4950    -1.7420 f          1 B6E      -0.232633
     19 C16          0.3530     0.9650     0.8800 ca         1 B6E      -0.162000
     20 O2           8.9700     0.0350     1.2480 o          1 B6E      -0.588100
     21 C17         -4.3390     0.0800     0.7560 c          1 B6E       0.797100
     22 C18         -6.5290    -1.0020     0.9520 ca         1 B6E       0.044600
     23 C19         -7.2340    -0.3490    -0.0530 ca         1 B6E      -0.070000
     24 C20         -8.4360    -0.8670    -0.5220 ca         1 B6E      -0.190300
     25 O3           9.7180    -2.1710    -1.4190 os         1 B6E      -0.324800
     26 C21         -8.9670    -2.0320     0.0120 ca         1 B6E      -0.076000
     27 C22         -8.2890    -2.6800     1.0320 ca         1 B6E      -0.153000
     28 C23         -7.0920    -2.1660     1.4750 ca         1 B6E       0.108900
     29 C24         -9.1280    -0.1600    -1.6450 c3         1 B6E       0.724200
     30 C25         10.8440    -2.8640    -1.6450 cd         1 B6E       0.273600
     31 F3          -9.0760     1.1710    -1.5100 f          1 B6E      -0.232633
     32 N            7.6970    -0.5760    -0.5360 ns         1 B6E      -0.467400
     33 C           11.7550    -2.6210    -0.6680 cc         1 B6E      -0.285300
     34 O            1.4160     2.6710    -0.4840 os         1 B6E      -0.249200
     35 F           -6.4350    -2.7950     2.4590 f          1 B6E      -0.144900
     36 N1           5.5300     0.1350    -1.0630 nd         1 B6E      -0.623100
     37 N2           6.4240     0.9660     0.8040 na         1 B6E      -0.264300
     38 N3          -3.2390     0.3770     1.5050 ns         1 B6E      -0.489100
     39 N4          -5.3300    -0.5380     1.4830 ns         1 B6E      -0.493100
     40 H2          11.5580    -1.2820     1.1220 ha         1 B6E       0.179000
     41 H4           2.9080     0.9510    -1.7850 ha         1 B6E       0.164000
     42 H5           2.6230     3.4750     1.6790 ha         1 B6E       0.147000
     43 H6           4.9050     2.8250     2.4140 ha         1 B6E       0.143000
     44 H7          -0.9480     3.4810    -0.9720 ha         1 B6E       0.149500
     45 H8          -3.0330     2.5250    -0.1200 ha         1 B6E       0.141500
     46 H9          -0.7930    -0.4620     1.9790 ha         1 B6E       0.141500
     47 H10          1.2920     0.5190     1.1800 ha         1 B6E       0.149500
     48 H13         -6.8430     0.5730    -0.4570 ha         1 B6E       0.178000
     49 H14         -9.9020    -2.4450    -0.3410 ha         1 B6E       0.156000
     50 H15         -8.6810    -3.5860     1.4740 ha         1 B6E       0.157000
     51 H16         10.8630    -3.4830    -2.5270 h4         1 B6E       0.062100
     52 H3           7.6440    -1.1260    -1.3830 hn         1 B6E       0.366500
     53 H1          12.7440    -3.0430    -0.5970 ha         1 B6E       0.171000
     54 H            7.1170     1.1200     1.5190 hn         1 B6E       0.338700
     55 H11         -3.1660    -0.0150     2.4310 hn         1 B6E       0.315500
     56 H12         -5.1140    -0.8330     2.4230 hn         1 B6E       0.325500
@<TRIPOS>BOND
     1     1     2 2   
     2     1    33 1   
     3     1    40 1   
     4     2     3 1   
     5     2    25 1   
     6     3    20 2   
     7     3    32 1   
     8     4    32 1   
     9     4    36 2   
    10     4    37 1   
    11     5     6 ar  
    12     5    11 ar  
    13     5    36 1   
    14     6     7 ar  
    15     6    41 1   
    16     7     9 ar  
    17     7    34 1   
    18     8    29 1   
    19     9    10 ar  
    20     9    42 1   
    21    10    11 ar  
    22    10    43 1   
    23    11    37 1   
    24    12    21 2   
    25    13    14 ar  
    26    13    19 ar  
    27    13    34 1   
    28    14    15 ar  
    29    14    44 1   
    30    15    16 ar  
    31    15    45 1   
    32    16    17 ar  
    33    16    38 1   
    34    17    19 ar  
    35    17    46 1   
    36    18    29 1   
    37    19    47 1   
    38    21    38 1   
    39    21    39 1   
    40    22    23 ar  
    41    22    28 ar  
    42    22    39 1   
    43    23    24 ar  
    44    23    48 1   
    45    24    26 ar  
    46    24    29 1   
    47    25    30 1   
    48    26    27 ar  
    49    26    49 1   
    50    27    28 ar  
    51    27    50 1   
    52    28    35 1   
    53    29    31 1   
    54    30    33 2   
    55    30    51 1   
    56    32    52 1   
    57    33    53 1   
    58    37    54 1   
    59    38    55 1   
    60    39    56 1   
@<TRIPOS>SUBSTRUCTURE
     1 B6E         1 TEMP              0 ****  ****    0 ROOT
