@<TRIPOS>MOLECULE
B6H
   65    68     1     0     0
SMALL
No Charge or Current Charge


@<TRIPOS>ATOM
      1 CAQ         -7.1070     1.0810     1.1760 c6         1 B6H       0.196800
      2 CAO         -8.6560     1.1440     0.9680 c6         1 B6H       0.157800
      3 NBH         -9.3600    -0.0750     1.4720 n3         1 B6H      -0.714600
      4 CAC        -10.8270     0.0060     1.3130 c3         1 B6H       0.152100
      5 CAP         -8.7760    -1.2950     0.8340 c6         1 B6H       0.157800
      6 CAR         -7.2300    -1.4070     1.0390 c6         1 B6H       0.196800
      7 NBI         -6.5020    -0.1680     0.6130 nh         1 B6H      -0.785400
      8 CBC         -5.1300    -0.2350     0.2860 ca         1 B6H       0.324000
      9 CAN         -4.7000    -1.1170    -0.7180 ca         1 B6H      -0.227000
     10 CBF         -3.3330    -1.2040    -1.0640 ca         1 B6H       0.140100
     11 OAV         -2.8850    -2.0760    -2.0470 os         1 B6H      -0.355100
     12 CAB         -3.7740    -2.9430    -2.7760 c3         1 B6H       0.151900
     13 CAL         -4.1810     0.5620     0.9510 ca         1 B6H      -0.192000
     14 CAM         -2.8180     0.4830     0.6140 ca         1 B6H      -0.044000
     15 CBD         -2.3790    -0.3880    -0.4030 ca         1 B6H       0.218000
     16 NAU         -1.0190    -0.4950    -0.7450 nu         1 B6H      -0.905900
     17 CBE         -0.0010     0.4020    -0.8510 cc         1 B6H       0.776300
     18 SAW          1.5850    -0.0360    -1.4410 ss         1 B6H      -0.094400
     19 NAS         -0.1970     1.6610    -0.5410 nd         1 B6H      -0.813000
     20 CBA          0.9570     2.3310    -0.7530 cd         1 B6H       0.692900
     21 NAD          0.9030     3.6000    -0.4100 nv         1 B6H      -1.048900
     22 CBG          2.0050     1.6510    -1.2830 cc         1 B6H      -0.470600
     23 CAY          3.3550     2.2220    -1.3990 c          1 B6H       0.652300
     24 OAF          3.5190     3.3960    -1.7120 o          1 B6H      -0.608100
     25 CBB          4.5260     1.3810    -0.9450 ca         1 B6H      -0.175600
     26 CAK          4.4070     0.4200     0.0830 ca         1 B6H      -0.046000
     27 CAI          5.5200    -0.3340     0.4930 ca         1 B6H      -0.164500
     28 CAJ          5.7940     1.5950    -1.5230 ca         1 B6H      -0.046000
     29 CAH          6.9040     0.8390    -1.1120 ca         1 B6H      -0.164500
     30 CAZ          6.7800    -0.1390    -0.1100 ca         1 B6H      -0.003000
     31 NAT          7.9490    -0.8610     0.2560 ns         1 B6H      -0.151000
     32 CAX          8.1530    -1.9450     1.1000 c          1 B6H       0.605100
     33 OAE          7.2600    -2.5400     1.6940 o          1 B6H      -0.572100
     34 CAG          9.6180    -2.3940     1.2060 c3         1 B6H      -0.159400
     35 CAA         10.2340    -2.0210     2.5730 c3         1 B6H      -0.076100
     36 H1          -6.6600     1.9680     0.7020 h1         1 B6H       0.045200
     37 H2          -6.8960     1.1430     2.2540 h1         1 B6H       0.045200
     38 H3          -9.0390     2.0420     1.4760 h1         1 B6H       0.040200
     39 H4          -8.8560     1.2760    -0.1060 h1         1 B6H       0.040200
     40 H6         -11.1040     0.0780     0.2520 h1         1 B6H       0.032367
     41 H7         -11.3130    -0.8840     1.7360 h1         1 B6H       0.032367
     42 H8         -11.2250     0.8880     1.8330 h1         1 B6H       0.032367
     43 H9          -9.2480    -2.2000     1.2430 h1         1 B6H       0.040200
     44 H10         -8.9820    -1.2880    -0.2470 h1         1 B6H       0.040200
     45 H11         -7.0300    -1.6010     2.1030 h1         1 B6H       0.045200
     46 H12         -6.8720    -2.2830     0.4800 h1         1 B6H       0.045200
     47 H13         -5.4430    -1.7190    -1.2280 ha         1 B6H       0.121000
     48 H14         -4.2940    -3.6290    -2.0960 h1         1 B6H       0.042700
     49 H15         -4.5200    -2.3600    -3.3290 h1         1 B6H       0.042700
     50 H16         -3.2090    -3.5450    -3.4980 h1         1 B6H       0.042700
     51 H17         -4.4870     1.2360     1.7440 ha         1 B6H       0.120000
     52 H18         -2.1020     1.0930     1.1560 ha         1 B6H       0.139000
     53 H19         -0.8050    -1.3310    -1.2830 hn         1 B6H       0.520000
     54 H20         -0.0360     3.9700    -0.3460 hn         1 B6H       0.513500
     55 H21          1.5940     4.1970    -0.8530 hn         1 B6H       0.513500
     56 H22          3.4580     0.2680     0.5920 ha         1 B6H       0.125000
     57 H23          5.3830    -1.0550     1.2920 ha         1 B6H       0.128000
     58 H24          5.9180     2.3440    -2.3030 ha         1 B6H       0.125000
     59 H25          7.8700     1.0160    -1.5820 ha         1 B6H       0.128000
     60 H26          8.7940    -0.5120    -0.1770 hn         1 B6H       0.147000
     61 H27          9.6620    -3.4840     1.0970 hc         1 B6H       0.057200
     62 H28         10.2170    -1.9190     0.4200 hc         1 B6H       0.057200
     63 H29         10.2110    -0.9350     2.7270 hc         1 B6H       0.044700
     64 H30          9.6820    -2.4980     3.3930 hc         1 B6H       0.044700
     65 H31         11.2780    -2.3520     2.6270 hc         1 B6H       0.044700
@<TRIPOS>BOND
     1     1     2 1   
     2     1     7 1   
     3     1    36 1   
     4     1    37 1   
     5     2     3 1   
     6     2    38 1   
     7     2    39 1   
     8     3     4 1   
     9     3     5 1   
    10     4    40 1   
    11     4    41 1   
    12     4    42 1   
    13     5     6 1   
    14     5    43 1   
    15     5    44 1   
    16     6     7 1   
    17     6    45 1   
    18     6    46 1   
    19     7     8 1   
    20     8     9 ar  
    21     8    13 ar  
    22     9    10 ar  
    23     9    47 1   
    24    10    11 1   
    25    10    15 ar  
    26    11    12 1   
    27    12    48 1   
    28    12    49 1   
    29    12    50 1   
    30    13    14 ar  
    31    13    51 1   
    32    14    15 ar  
    33    14    52 1   
    34    15    16 1   
    35    16    17 1   
    36    16    53 1   
    37    17    18 1   
    38    17    19 2   
    39    18    22 1   
    40    19    20 1   
    41    20    21 1   
    42    20    22 2   
    43    21    54 1   
    44    21    55 1   
    45    22    23 1   
    46    23    24 2   
    47    23    25 1   
    48    25    26 ar  
    49    25    28 ar  
    50    26    27 ar  
    51    26    56 1   
    52    27    30 ar  
    53    27    57 1   
    54    28    29 ar  
    55    28    58 1   
    56    29    30 ar  
    57    29    59 1   
    58    30    31 1   
    59    31    32 1   
    60    31    60 1   
    61    32    33 2   
    62    32    34 1   
    63    34    35 1   
    64    34    61 1   
    65    34    62 1   
    66    35    63 1   
    67    35    64 1   
    68    35    65 1   
@<TRIPOS>SUBSTRUCTURE
     1 B6H         1 TEMP              0 ****  ****    0 ROOT
