@<TRIPOS>MOLECULE
B6H
   65    68     1     0     0
SMALL
abcg2


@<TRIPOS>ATOM
      1 CAQ         -7.2410     1.0900     0.7400 c6         1 B6H       0.196800
      2 CAO         -8.7150     1.0940     0.3830 c6         1 B6H       0.157800
      3 NBH         -9.3800    -0.0800     0.9050 n3         1 B6H      -0.714600
      4 CAC        -10.8020    -0.0510     0.6520 c3         1 B6H       0.152100
      5 CAP         -8.7600    -1.2700     0.3670 c6         1 B6H       0.157800
      6 CAR         -7.2880    -1.3160     0.7230 c6         1 B6H       0.196800
      7 NBI         -6.6010    -0.1180     0.2570 nh         1 B6H      -0.785400
      8 CBC         -5.2080    -0.1470     0.2390 ca         1 B6H       0.324000
      9 CAN         -4.5450    -1.2470    -0.3300 ca         1 B6H      -0.227000
     10 CBF         -3.1640    -1.3030    -0.3900 ca         1 B6H       0.140100
     11 OAV         -2.4710    -2.3250    -0.9240 os         1 B6H      -0.355100
     12 CAB         -3.1730    -3.4520    -1.4100 c3         1 B6H       0.151900
     13 CAL         -4.4260     0.8940     0.7430 ca         1 B6H      -0.192000
     14 CAM         -3.0400     0.8330     0.6870 ca         1 B6H      -0.044000
     15 CBD         -2.3880    -0.2510     0.1280 ca         1 B6H       0.218000
     16 NAU         -0.9890    -0.3850     0.0910 nu         1 B6H      -0.905900
     17 CBE         -0.0960     0.5880    -0.1140 cc         1 B6H       0.776300
     18 SAW          1.6010     0.2080    -0.0700 ss         1 B6H      -0.094400
     19 NAS         -0.3940     1.8390    -0.3420 nd         1 B6H      -0.813000
     20 CBA          0.7250     2.5820    -0.5130 cd         1 B6H       0.692900
     21 NAD          0.5970     3.8830    -0.7710 nv         1 B6H      -1.048900
     22 CBG          1.9480     1.9040    -0.3910 cc         1 B6H      -0.470600
     23 CAY          3.2360     2.4620    -0.6130 c          1 B6H       0.652300
     24 OAF          3.3850     3.6340    -0.9820 o          1 B6H      -0.608100
     25 CBB          4.4410     1.6050    -0.4280 ca         1 B6H      -0.175600
     26 CAK          4.6030     0.7600     0.6650 ca         1 B6H      -0.046000
     27 CAI          5.7490    -0.0030     0.8360 ca         1 B6H      -0.164500
     28 CAJ          5.4840     1.6910    -1.3500 ca         1 B6H      -0.046000
     29 CAH          6.6200     0.9220    -1.2050 ca         1 B6H      -0.164500
     30 CAZ          6.7710     0.0590    -0.1130 ca         1 B6H      -0.003000
     31 NAT          7.9540    -0.6720    -0.0470 ns         1 B6H      -0.151000
     32 CAX          8.3180    -1.6590     0.8200 c          1 B6H       0.605100
     33 OAE          7.6220    -2.0360     1.7430 o          1 B6H      -0.572100
     34 CAG          9.6770    -2.2520     0.5130 c3         1 B6H      -0.159400
     35 CAA         10.1520    -3.2470     1.5540 c3         1 B6H      -0.076100
     36 H1          -6.7770     1.9590     0.2710 h1         1 B6H       0.045200
     37 H2          -7.1290     1.2040     1.8290 h1         1 B6H       0.045200
     38 H3          -9.1720     1.9890     0.8140 h1         1 B6H       0.040200
     39 H4          -8.8230     1.1720    -0.7140 h1         1 B6H       0.040200
     40 H6         -11.0540    -0.0350    -0.4200 h1         1 B6H       0.032367
     41 H7         -11.2770    -0.9300     1.0910 h1         1 B6H       0.032367
     42 H8         -11.2450     0.8340     1.1100 h1         1 B6H       0.032367
     43 H9          -9.2450    -2.1530     0.7900 h1         1 B6H       0.040200
     44 H10         -8.8710    -1.3320    -0.7300 h1         1 B6H       0.040200
     45 H11         -7.1780    -1.4250     1.8120 h1         1 B6H       0.045200
     46 H12         -6.8580    -2.2050     0.2660 h1         1 B6H       0.045200
     47 H13         -5.1250    -2.0480    -0.7660 ha         1 B6H       0.121000
     48 H14         -3.7710    -3.9260    -0.6270 h1         1 B6H       0.042700
     49 H15         -3.8260    -3.1950    -2.2480 h1         1 B6H       0.042700
     50 H16         -2.4200    -4.1560    -1.7560 h1         1 B6H       0.042700
     51 H17         -4.8740     1.7590     1.2100 ha         1 B6H       0.120000
     52 H18         -2.4660     1.6470     1.1050 ha         1 B6H       0.139000
     53 H19         -0.6310    -1.3250     0.1770 hn         1 B6H       0.520000
     54 H20         -0.3150     4.2690    -0.9430 hn         1 B6H       0.513500
     55 H21          1.4150     4.4180    -1.0100 hn         1 B6H       0.513500
     56 H22          3.8450     0.7090     1.4360 ha         1 B6H       0.125000
     57 H23          5.8330    -0.6290     1.7080 ha         1 B6H       0.128000
     58 H24          5.4030     2.3520    -2.2030 ha         1 B6H       0.125000
     59 H25          7.4060     0.9910    -1.9480 ha         1 B6H       0.128000
     60 H26          8.6200    -0.4660    -0.7770 hn         1 B6H       0.147000
     61 H27          9.6210    -2.7280    -0.4710 hc         1 B6H       0.057200
     62 H28         10.4000    -1.4380     0.4040 hc         1 B6H       0.057200
     63 H29         10.2570    -2.7840     2.5350 hc         1 B6H       0.044700
     64 H30          9.4680    -4.0890     1.6510 hc         1 B6H       0.044700
     65 H31         11.1260    -3.6430     1.2690 hc         1 B6H       0.044700
@<TRIPOS>BOND
     1     1     2 1   
     2     1     7 1   
     3     1    36 1   
     4     1    37 1   
     5     2     3 1   
     6     2    38 1   
     7     2    39 1   
     8     3     4 1   
     9     3     5 1   
    10     4    40 1   
    11     4    41 1   
    12     4    42 1   
    13     5     6 1   
    14     5    43 1   
    15     5    44 1   
    16     6     7 1   
    17     6    45 1   
    18     6    46 1   
    19     7     8 1   
    20     8     9 ar  
    21     8    13 ar  
    22     9    10 ar  
    23     9    47 1   
    24    10    11 1   
    25    10    15 ar  
    26    11    12 1   
    27    12    48 1   
    28    12    49 1   
    29    12    50 1   
    30    13    14 ar  
    31    13    51 1   
    32    14    15 ar  
    33    14    52 1   
    34    15    16 1   
    35    16    17 1   
    36    16    53 1   
    37    17    18 1   
    38    17    19 2   
    39    18    22 1   
    40    19    20 1   
    41    20    21 1   
    42    20    22 2   
    43    21    54 1   
    44    21    55 1   
    45    22    23 1   
    46    23    24 2   
    47    23    25 1   
    48    25    26 ar  
    49    25    28 ar  
    50    26    27 ar  
    51    26    56 1   
    52    27    30 ar  
    53    27    57 1   
    54    28    29 ar  
    55    28    58 1   
    56    29    30 ar  
    57    29    59 1   
    58    30    31 1   
    59    31    32 1   
    60    31    60 1   
    61    32    33 2   
    62    32    34 1   
    63    34    35 1   
    64    34    61 1   
    65    34    62 1   
    66    35    63 1   
    67    35    64 1   
    68    35    65 1   
@<TRIPOS>SUBSTRUCTURE
     1 B6H         1 TEMP              0 ****  ****    0 ROOT
