@<TRIPOS>MOLECULE
B6I
   58    62     1     0     0
SMALL
No Charge or Current Charge


@<TRIPOS>ATOM
      1 C1         -29.5280     8.5410   -27.9770 cc         1 B6I       0.251900
      2 C2         -29.5580     6.3440   -27.6990 cd         1 B6I      -0.222000
      3 C3         -27.2860     9.5020   -32.8270 ca         1 B6I      -0.394600
      4 C7         -28.0640     7.9580   -30.7870 ca         1 B6I       0.449900
      5 C8         -26.3060     7.4900   -33.8910 cc         1 B6I      -0.391800
      6 C9         -25.8920     8.2610   -34.9560 cd         1 B6I      -0.017400
      7 C10        -26.8270    10.3150   -33.9920 c          1 B6I       0.595600
      8 C11        -30.4470    11.7300   -30.3380 cx         1 B6I      -0.128400
      9 C12        -30.0920    13.0270   -31.0290 cx         1 B6I      -0.128400
     10 C13        -31.9920     5.4940   -25.8700 c6         1 B6I      -0.089400
     11 C14        -29.7800     5.6190   -24.6300 c6         1 B6I      -0.089400
     12 C15        -32.6130     4.8280   -24.6210 c6         1 B6I       0.164800
     13 C16        -30.4640     4.9500   -23.4160 c6         1 B6I       0.164800
     14 N23        -27.4090     7.3520   -31.7830 nb         1 B6I      -0.306000
     15 N25        -30.1830     7.0400   -26.6550 na         1 B6I       0.128800
     16 N26        -26.1380     9.6310   -35.0180 n          1 B6I      -0.289000
     17 C4         -29.1340     7.3060   -28.5560 cc         1 B6I       0.187000
     18 C5         -27.0190     8.1320   -32.8050 ca         1 B6I       0.293800
     19 C6         -27.9830    10.0260   -31.7290 ca         1 B6I       0.471900
     20 C17        -30.8130     6.4130   -25.4670 c6         1 B6I       0.098300
     21 C18        -29.0030    12.0710   -30.6140 cx         1 B6I       0.188200
     22 N22        -30.1650     8.4180   -26.8260 nd         1 B6I      -0.525800
     23 N24        -28.3730     9.2540   -30.7070 nb         1 B6I      -0.332000
     24 N27        -31.5900     4.0750   -23.8440 n3         1 B6I      -0.721600
     25 N28        -28.4550     7.1200   -29.7540 nu         1 B6I      -0.897900
     26 O30        -27.0350    11.5220   -34.0600 o          1 B6I      -0.609000
     27 H1         -29.3640     9.5370   -28.3610 h4         1 B6I       0.065100
     28 H2         -29.4760     5.2650   -27.7380 h4         1 B6I       0.156000
     29 H3         -26.0990     6.4240   -33.8740 ha         1 B6I       0.214000
     30 H4         -25.3520     7.8660   -35.8140 h4         1 B6I       0.199000
     31 H6         -30.9080    10.9470   -30.9340 hc         1 B6I       0.079700
     32 H7         -30.2020    13.9480   -30.4630 hc         1 B6I       0.079700
     33 H8         -30.3220    13.1140   -32.0880 hc         1 B6I       0.079700
     34 H9         -32.7590     6.0740   -26.4000 hc         1 B6I       0.060200
     35 H10        -31.6490     4.7140   -26.5620 hc         1 B6I       0.060200
     36 H11        -29.3010     4.8460   -25.2470 hc         1 B6I       0.060200
     37 H12        -28.9810     6.2880   -24.2830 hc         1 B6I       0.060200
     38 H13        -33.0760     5.6030   -23.9910 h1         1 B6I       0.036950
     39 H14        -33.4180     4.1530   -24.9460 h1         1 B6I       0.036950
     40 H15        -29.7120     4.3630   -22.8690 h1         1 B6I       0.036950
     41 H16        -30.8260     5.7310   -22.7310 h1         1 B6I       0.036950
     42 H17        -28.5100    12.9780   -28.7020 hc         1 B6I       0.047700
     43 H18        -27.5760    11.5210   -29.0630 hc         1 B6I       0.047700
     44 H19        -27.1990    13.0460   -29.8890 hc         1 B6I       0.047700
     45 H27        -31.2120     7.2210   -24.8370 h1         1 B6I       0.083700
     46 H29        -28.2140     6.1460   -29.9390 hn         1 B6I       0.513000
     47 C20        -25.6710    10.4140   -36.1850 c3         1 B6I       0.087300
     48 C21        -32.1830     3.3300   -22.7110 c3         1 B6I       0.151100
     49 N29        -28.2990    11.3720   -31.6510 nu         1 B6I      -0.895100
     50 H5         -30.7900    11.7810   -29.3080 hc         1 B6I       0.079700
     51 C19        -28.0160    12.4220   -29.5070 c3         1 B6I      -0.072100
     52 H20        -26.5290    10.8820   -36.6830 h1         1 B6I       0.053033
     53 H21        -24.9780    11.1980   -35.8510 h1         1 B6I       0.053033
     54 H22        -25.1530     9.7700   -36.9070 h1         1 B6I       0.053033
     55 H23        -31.4180     2.7330   -22.1970 h1         1 B6I       0.033367
     56 H24        -32.6310     4.0180   -21.9810 h1         1 B6I       0.033367
     57 H25        -32.9650     2.6450   -23.0640 h1         1 B6I       0.033367
     58 H26        -27.9560    11.8770   -32.4770 hn         1 B6I       0.543000
@<TRIPOS>BOND
     1     1    17 1   
     2     1    22 2   
     3     1    27 1   
     4     2    15 1   
     5     2    17 2   
     6     2    28 1   
     7     3     7 1   
     8     3    18 ar  
     9     3    19 ar  
    10     4    14 ar  
    11     4    23 ar  
    12     4    25 1   
    13     5     6 2   
    14     5    18 1   
    15     5    29 1   
    16     6    16 1   
    17     6    30 1   
    18     7    16 1   
    19     7    26 2   
    20     8     9 1   
    21     8    21 1   
    22     8    31 1   
    23     8    50 1   
    24     9    21 1   
    25     9    32 1   
    26     9    33 1   
    27    10    12 1   
    28    10    20 1   
    29    10    34 1   
    30    10    35 1   
    31    11    13 1   
    32    11    20 1   
    33    11    36 1   
    34    11    37 1   
    35    12    24 1   
    36    12    38 1   
    37    12    39 1   
    38    13    24 1   
    39    13    40 1   
    40    13    41 1   
    41    14    18 ar  
    42    15    20 1   
    43    15    22 1   
    44    16    47 1   
    45    17    25 1   
    46    19    23 ar  
    47    19    49 1   
    48    20    45 1   
    49    21    49 1   
    50    21    51 1   
    51    24    48 1   
    52    25    46 1   
    53    42    51 1   
    54    43    51 1   
    55    44    51 1   
    56    47    52 1   
    57    47    53 1   
    58    47    54 1   
    59    48    55 1   
    60    48    56 1   
    61    48    57 1   
    62    49    58 1   
@<TRIPOS>SUBSTRUCTURE
     1 B6I         1 TEMP              0 ****  ****    0 ROOT
