@<TRIPOS>MOLECULE
B6I
   58    62     1     0     0
SMALL
abcg2


@<TRIPOS>ATOM
      1 C1         -29.9310     8.4700   -28.3410 cc         1 B6I       0.251900
      2 C2         -29.7890     6.3010   -27.9050 cd         1 B6I      -0.222000
      3 C3         -27.3020     9.4660   -32.8650 ca         1 B6I      -0.394600
      4 C7         -28.2840     7.8160   -30.9770 ca         1 B6I       0.449900
      5 C8         -26.4350     7.5200   -34.0440 cc         1 B6I      -0.391800
      6 C9         -25.9380     8.3520   -34.9870 cd         1 B6I      -0.017400
      7 C10        -26.7630    10.3320   -33.8810 c          1 B6I       0.595600
      8 C11        -30.3840    11.7100   -30.3530 cx         1 B6I      -0.128400
      9 C12        -29.7960    13.0300   -30.7870 cx         1 B6I      -0.128400
     10 C13        -31.9600     5.2820   -25.9080 c6         1 B6I      -0.089400
     11 C14        -29.8300     5.9260   -24.7530 c6         1 B6I      -0.089400
     12 C15        -32.4540     4.7260   -24.5780 c6         1 B6I       0.164800
     13 C16        -30.4070     5.3440   -23.4680 c6         1 B6I       0.164800
     14 N23        -27.6350     7.2330   -31.9970 nb         1 B6I      -0.306000
     15 N25        -30.4410     6.9590   -26.9160 na         1 B6I       0.128800
     16 N26        -26.0870     9.7080   -34.9260 n          1 B6I      -0.289000
     17 C4         -29.4420     7.2500   -28.8550 cc         1 B6I       0.187000
     18 C5         -27.1450     8.0630   -32.9330 ca         1 B6I       0.293800
     19 C6         -28.0220     9.9620   -31.7240 ca         1 B6I       0.471900
     20 C17        -30.9560     6.4070   -25.6670 c6         1 B6I       0.098300
     21 C18        -28.8930    11.8810   -30.4440 cx         1 B6I       0.188200
     22 N22        -30.5300     8.2750   -27.1640 nd         1 B6I      -0.525800
     23 N24        -28.4990     9.1250   -30.7990 nb         1 B6I      -0.332000
     24 N27        -31.3430     4.2590   -23.7510 n3         1 B6I      -0.721600
     25 N28        -28.7630     6.9570   -30.0380 nu         1 B6I      -0.897900
     26 O30        -26.8590    11.5740   -33.8870 o          1 B6I      -0.609000
     27 H1         -29.8660     9.4490   -28.7760 h4         1 B6I       0.065100
     28 H2         -29.6170     5.2390   -27.8780 h4         1 B6I       0.156000
     29 H3         -26.2960     6.4520   -34.1260 ha         1 B6I       0.214000
     30 H4         -25.3930     7.9860   -35.8450 h4         1 B6I       0.199000
     31 H6         -30.8590    11.0980   -31.1060 hc         1 B6I       0.079700
     32 H7         -29.8260    13.8610   -30.0940 hc         1 B6I       0.079700
     33 H8         -29.8870    13.3010   -31.8310 hc         1 B6I       0.079700
     34 H9         -32.8040     5.6560   -26.4920 hc         1 B6I       0.060200
     35 H10        -31.4860     4.4800   -26.4790 hc         1 B6I       0.060200
     36 H11        -29.2470     5.1590   -25.2700 hc         1 B6I       0.060200
     37 H12        -29.1610     6.7560   -24.5180 hc         1 B6I       0.060200
     38 H13        -33.0350     5.5030   -24.0480 h1         1 B6I       0.036950
     39 H14        -33.1280     3.8860   -24.7560 h1         1 B6I       0.036950
     40 H15        -29.6030     4.9520   -22.8430 h1         1 B6I       0.036950
     41 H16        -30.9030     6.1480   -22.8930 h1         1 B6I       0.036950
     42 H17        -28.6320    12.4200   -28.3780 hc         1 B6I       0.047700
     43 H18        -27.7850    10.9420   -28.8540 hc         1 B6I       0.047700
     44 H19        -27.1550    12.5230   -29.3490 hc         1 B6I       0.047700
     45 H27        -31.4680     7.2440   -25.1900 h1         1 B6I       0.083700
     46 H29        -28.5560     5.9870   -30.2160 hn         1 B6I       0.513000
     47 C20        -25.5290    10.5610   -35.9750 c3         1 B6I       0.087300
     48 C21        -31.8240     3.6450   -22.5230 c3         1 B6I       0.151100
     49 N29        -28.2320    11.2770   -31.5710 nu         1 B6I      -0.895100
     50 H5         -30.8180    11.6400   -29.3640 hc         1 B6I       0.079700
     51 C19        -28.0660    11.9440   -29.1800 c3         1 B6I      -0.072100
     52 H20        -26.3220    11.1340   -36.4530 h1         1 B6I       0.053033
     53 H21        -24.8050    11.2540   -35.5500 h1         1 B6I       0.053033
     54 H22        -25.0410     9.9280   -36.7100 h1         1 B6I       0.053033
     55 H23        -30.9800     3.2670   -21.9440 h1         1 B6I       0.033367
     56 H24        -32.3850     4.3540   -21.8900 h1         1 B6I       0.033367
     57 H25        -32.4830     2.8090   -22.7620 h1         1 B6I       0.033367
     58 H26        -27.8130    11.8620   -32.2870 hn         1 B6I       0.543000
@<TRIPOS>BOND
     1     1    17 1   
     2     1    22 2   
     3     1    27 1   
     4     2    15 1   
     5     2    17 2   
     6     2    28 1   
     7     3     7 1   
     8     3    18 ar  
     9     3    19 ar  
    10     4    14 ar  
    11     4    23 ar  
    12     4    25 1   
    13     5     6 2   
    14     5    18 1   
    15     5    29 1   
    16     6    16 1   
    17     6    30 1   
    18     7    16 1   
    19     7    26 2   
    20     8     9 1   
    21     8    21 1   
    22     8    31 1   
    23     8    50 1   
    24     9    21 1   
    25     9    32 1   
    26     9    33 1   
    27    10    12 1   
    28    10    20 1   
    29    10    34 1   
    30    10    35 1   
    31    11    13 1   
    32    11    20 1   
    33    11    36 1   
    34    11    37 1   
    35    12    24 1   
    36    12    38 1   
    37    12    39 1   
    38    13    24 1   
    39    13    40 1   
    40    13    41 1   
    41    14    18 ar  
    42    15    20 1   
    43    15    22 1   
    44    16    47 1   
    45    17    25 1   
    46    19    23 ar  
    47    19    49 1   
    48    20    45 1   
    49    21    49 1   
    50    21    51 1   
    51    24    48 1   
    52    25    46 1   
    53    42    51 1   
    54    43    51 1   
    55    44    51 1   
    56    47    52 1   
    57    47    53 1   
    58    47    54 1   
    59    48    55 1   
    60    48    56 1   
    61    48    57 1   
    62    49    58 1   
@<TRIPOS>SUBSTRUCTURE
     1 B6I         1 TEMP              0 ****  ****    0 ROOT
