@<TRIPOS>MOLECULE
B6J
   40    43     1     0     0
SMALL
bcc


@<TRIPOS>ATOM
      1 C4          -1.2430    -2.6740    -0.3000 ca         1 B6J      -0.138000
      2 C14          3.6470    -1.1710     0.0720 ca         1 B6J       0.727900
      3 C5          -2.3480    -3.4900    -0.0740 ca         1 B6J       0.131100
      4 C6          -3.3300    -3.0920     0.8280 ca         1 B6J      -0.217000
      5 C11          2.3380     0.8620    -0.0620 ca         1 B6J       0.652000
      6 C8           0.0810    -0.6310     0.1340 cp         1 B6J       0.316500
      7 C9           0.0510     0.7800    -0.0690 cq         1 B6J       0.434500
      8 C12          2.3500    -0.5390     0.0460 ca         1 B6J       0.027000
      9 C3          -1.1240    -1.4560     0.3600 cp         1 B6J      -0.097500
     10 C1          -3.1970    -1.8820     1.4940 ca         1 B6J      -0.091000
     11 C2          -2.1070    -1.0590     1.2660 ca         1 B6J      -0.141000
     12 O7          -2.4130    -4.6540    -0.7530 oh         1 B6J      -0.496100
     13 N10          1.1530     1.4920    -0.1370 nb         1 B6J      -0.647000
     14 N13          1.2390    -1.2550     0.1560 nb         1 B6J      -0.605000
     15 N15          4.7380    -0.4410     0.0160 nb         1 B6J      -0.879000
     16 C16          4.5930     0.9020    -0.0660 ca         1 B6J       0.976900
     17 N17          3.4590     1.5900    -0.1130 nb         1 B6J      -0.802000
     18 N18          5.7370     1.5970    -0.0880 nv         1 B6J      -0.954500
     19 C20         -1.2170     1.5220    -0.2480 cq         1 B6J      -0.120500
     20 C21         -2.1880     1.0650    -1.1370 ca         1 B6J      -0.136000
     21 C22         -3.3490     1.7990    -1.3110 ca         1 B6J      -0.094000
     22 C23         -3.5620     2.9730    -0.6020 ca         1 B6J      -0.213000
     23 C24         -2.5890     3.4310     0.2820 ca         1 B6J       0.130100
     24 C25         -1.4100     2.7090     0.4470 ca         1 B6J      -0.121000
     25 O26         -2.7360     4.5620     0.9990 oh         1 B6J      -0.492100
     26 H1          -0.4780    -2.9910    -0.9980 ha         1 B6J       0.153000
     27 H2          -4.1920    -3.7230     1.0140 ha         1 B6J       0.131000
     28 H3          -3.9580    -1.5830     2.2040 ha         1 B6J       0.133000
     29 H4          -2.0170    -0.1240     1.8020 ha         1 B6J       0.143000
     30 H5          -3.2090    -5.1390    -0.5070 ho         1 B6J       0.425000
     31 H6           6.6200     1.1210    -0.1440 hn         1 B6J       0.451300
     32 H7           5.7190     2.5920    -0.2240 hn         1 B6J       0.451300
     33 H8           2.8880    -3.0430     0.2580 hn         1 B6J       0.456800
     34 H9           4.6170    -2.9490     0.2370 hn         1 B6J       0.456800
     35 H10         -2.0380     0.1520    -1.6970 ha         1 B6J       0.143000
     36 H11         -4.1030     1.4570    -2.0070 ha         1 B6J       0.133000
     37 H12         -4.4810     3.5310    -0.7400 ha         1 B6J       0.130000
     38 H13         -0.6520     3.0710     1.1310 ha         1 B6J       0.162000
     39 H14         -3.5910     4.9660     0.8140 ho         1 B6J       0.425000
     40 N19          3.7240    -2.4930     0.1500 nv         1 B6J      -0.943500
@<TRIPOS>BOND
     1     1     3 ar  
     2     1     9 ar  
     3     1    26 1   
     4     2     8 ar  
     5     2    15 ar  
     6     2    40 1   
     7     3     4 ar  
     8     3    12 1   
     9     4    10 ar  
    10     4    27 1   
    11     5     8 ar  
    12     5    13 ar  
    13     5    17 ar  
    14     6     7 2   
    15     6     9 1   
    16     6    14 ar  
    17     7    13 1   
    18     7    19 1   
    19     8    14 ar  
    20     9    11 ar  
    21    10    11 ar  
    22    10    28 1   
    23    11    29 1   
    24    12    30 1   
    25    15    16 ar  
    26    16    17 ar  
    27    16    18 1   
    28    18    31 1   
    29    18    32 1   
    30    19    20 1   
    31    19    24 2   
    32    20    21 ar  
    33    20    35 1   
    34    21    22 ar  
    35    21    36 1   
    36    22    23 ar  
    37    22    37 1   
    38    23    24 ar  
    39    23    25 1   
    40    24    38 1   
    41    25    39 1   
    42    33    40 1   
    43    34    40 1   
@<TRIPOS>SUBSTRUCTURE
     1 B6J         1 TEMP              0 ****  ****    0 ROOT
