@<TRIPOS>MOLECULE
B6J
   40    43     1     0     0
SMALL
No Charge or Current Charge


@<TRIPOS>ATOM
      1 C4          -1.1900    -2.9540    -0.1620 ca         1 B6J      -0.120000
      2 C14          3.5990    -1.0890    -0.3690 ca         1 B6J       0.464900
      3 C5          -2.2410    -3.8240     0.1670 ca         1 B6J       0.131100
      4 C6          -3.2720    -3.3950     1.0140 ca         1 B6J      -0.199000
      5 C11          2.2630     0.8220     0.2910 ca         1 B6J       0.126000
      6 C8          -0.0180    -0.6850    -0.0030 cp         1 B6J       0.316500
      7 C9          -0.0690     0.7870     0.1850 cq         1 B6J       0.171500
      8 C12          2.3040    -0.5360    -0.1480 ca         1 B6J       0.027000
      9 C3          -1.1420    -1.6270     0.3460 cp         1 B6J      -0.097500
     10 C1          -3.2480    -2.0920     1.5360 ca         1 B6J      -0.073000
     11 C2          -2.1960    -1.2210     1.2080 ca         1 B6J      -0.123000
     12 O7          -2.2590    -5.0880    -0.3420 oh         1 B6J      -0.535100
     13 N10          1.0740     1.4360     0.4770 nb         1 B6J      -0.121000
     14 N13          1.1650    -1.2650    -0.3130 nb         1 B6J      -0.605000
     15 N15          4.7300    -0.4130    -0.1590 nb         1 B6J      -0.353000
     16 C16          4.5690     0.8350     0.2720 ca         1 B6J       0.450900
     17 N17          3.4230     1.4850     0.5040 nb         1 B6J      -0.276000
     18 N18          5.7050     1.5280     0.4900 nv         1 B6J      -1.064900
     19 C20         -1.2600     1.6610    -0.1470 cq         1 B6J      -0.120500
     20 C21         -2.2870     1.1830    -0.9920 ca         1 B6J      -0.118000
     21 C22         -3.3960     1.9890    -1.3020 ca         1 B6J      -0.076000
     22 C23         -3.4950     3.2870    -0.7780 ca         1 B6J      -0.195000
     23 C24         -2.4810     3.7770     0.0560 ca         1 B6J       0.130100
     24 C25         -1.3720     2.9750     0.3700 ca         1 B6J      -0.103000
     25 O26         -2.5710     5.0370     0.5680 oh         1 B6J      -0.531100
     26 H1          -0.4070    -3.3110    -0.8270 ha         1 B6J       0.135000
     27 H2          -4.0900    -4.0630     1.2740 ha         1 B6J       0.113000
     28 H3          -4.0440    -1.7560     2.1980 ha         1 B6J       0.115000
     29 H4          -2.1980    -0.2210     1.6360 ha         1 B6J       0.125000
     30 H5          -3.0600    -5.5450    -0.0070 ho         1 B6J       0.464000
     31 H6           6.5670     1.1600     0.0960 hn         1 B6J       0.506500
     32 H7           5.6410     2.5400     0.5750 hn         1 B6J       0.506500
     33 H8           2.9780    -2.9820    -0.7420 hn         1 B6J       0.512000
     34 H9           4.6940    -2.8030    -0.6150 hn         1 B6J       0.512000
     35 H10         -2.2370     0.1870    -1.4250 ha         1 B6J       0.125000
     36 H11         -4.1780     1.6060    -1.9540 ha         1 B6J       0.115000
     37 H12         -4.3560     3.9020    -1.0250 ha         1 B6J       0.112000
     38 H13         -0.6090     3.3870     1.0260 ha         1 B6J       0.144000
     39 H14         -3.4040     5.4430     0.2450 ho         1 B6J       0.464000
     40 N19          3.7910    -2.3720    -0.7900 nv         1 B6J      -1.053900
@<TRIPOS>BOND
     1     1     3 ar  
     2     1     9 ar  
     3     1    26 1   
     4     2     8 ar  
     5     2    15 ar  
     6     2    40 1   
     7     3     4 ar  
     8     3    12 1   
     9     4    10 ar  
    10     4    27 1   
    11     5     8 ar  
    12     5    13 ar  
    13     5    17 ar  
    14     6     7 2   
    15     6     9 1   
    16     6    14 ar  
    17     7    13 1   
    18     7    19 1   
    19     8    14 ar  
    20     9    11 ar  
    21    10    11 ar  
    22    10    28 1   
    23    11    29 1   
    24    12    30 1   
    25    15    16 ar  
    26    16    17 ar  
    27    16    18 1   
    28    18    31 1   
    29    18    32 1   
    30    19    20 1   
    31    19    24 2   
    32    20    21 ar  
    33    20    35 1   
    34    21    22 ar  
    35    21    36 1   
    36    22    23 ar  
    37    22    37 1   
    38    23    24 ar  
    39    23    25 1   
    40    24    38 1   
    41    25    39 1   
    42    33    40 1   
    43    34    40 1   
@<TRIPOS>SUBSTRUCTURE
     1 B6J         1 TEMP              0 ****  ****    0 ROOT
