@<TRIPOS>MOLECULE
B6K
   46    47     1     0     0
SMALL
abcg2


@<TRIPOS>ATOM
      1 C1           0.7030     0.0080    -0.0460 cp         1 B6K      -0.008500
      2 C2           1.3900    -1.0950    -0.5520 ca         1 B6K      -0.236750
      3 C3           2.7860    -1.1080    -0.6110 ca         1 B6K       0.180850
      4 O3           3.4870    -2.1280    -1.1270 os         1 B6K      -0.488000
      5 P3           3.0260    -3.7900    -0.9730 p5         1 B6K       1.319400
      6 C4           3.5170    -0.0070    -0.1320 ca         1 B6K       0.083600
      7 O4           4.8620    -0.0430    -0.1180 os         1 B6K      -0.501000
      8 P4           5.8090     0.6300    -1.3980 p5         1 B6K       1.339900
      9 C5           2.8290     1.1100     0.3670 ca         1 B6K       0.180850
     10 O5           3.5630     2.1540     0.7820 os         1 B6K      -0.488000
     11 P5           3.2660     2.9960     2.2600 p5         1 B6K       1.319400
     12 C6           1.4340     1.1030     0.4150 ca         1 B6K      -0.236750
     13 C14         -0.7780     0.0120     0.0180 cp         1 B6K      -0.008500
     14 C15         -1.4760    -1.1700     0.2610 ca         1 B6K      -0.236750
     15 C16         -2.8690    -1.1710     0.3650 ca         1 B6K       0.180850
     16 O16         -3.5750    -2.2870     0.6050 os         1 B6K      -0.488000
     17 P16         -3.0810    -3.4710     1.7650 p5         1 B6K       1.319400
     18 C17         -3.5830     0.0280     0.2210 ca         1 B6K       0.083600
     19 O17         -4.9160     0.0530     0.4010 os         1 B6K      -0.501000
     20 P17         -6.0290    -0.2950    -0.8740 p5         1 B6K       1.339900
     21 C18         -2.8860     1.2210    -0.0500 ca         1 B6K       0.180850
     22 O18         -3.6220     2.3330    -0.1600 os         1 B6K      -0.488000
     23 P18         -3.1200     3.8060    -0.9070 p5         1 B6K       1.319400
     24 C19         -1.4910     1.2010    -0.1400 ca         1 B6K      -0.236750
     25 O31          4.3030    -4.4570    -1.4650 o          1 B6K      -0.965000
     26 O32          2.7360    -3.9650     0.5080 o          1 B6K      -0.965000
     27 O33          1.8330    -3.9650    -1.9050 o          1 B6K      -0.965000
     28 O41          4.8130     1.3630    -2.2850 o          1 B6K      -0.978333
     29 O42          6.7940     1.5140    -0.6430 o          1 B6K      -0.978333
     30 O43          6.4600    -0.5870    -2.0440 o          1 B6K      -0.978333
     31 O51          4.5250     3.8470     2.3360 o          1 B6K      -0.965000
     32 O52          1.9850     3.7920     2.0320 o          1 B6K      -0.965000
     33 O53          3.1580     1.8970     3.3070 o          1 B6K      -0.965000
     34 O61         -1.9240    -4.2190     1.1140 o          1 B6K      -0.965000
     35 O62         -2.7070    -2.6600     2.9980 o          1 B6K      -0.965000
     36 O63         -4.3650    -4.2790     1.8850 o          1 B6K      -0.965000
     37 O71         -6.8830    -1.4090    -0.2760 o          1 B6K      -0.978333
     38 O72         -6.7900     1.0140    -1.0470 o          1 B6K      -0.978333
     39 O73         -5.1660    -0.7010    -2.0590 o          1 B6K      -0.978333
     40 O81         -1.9780     4.3310    -0.0430 o          1 B6K      -0.965000
     41 O82         -2.7190     3.4100    -2.3190 o          1 B6K      -0.965000
     42 O83         -4.4100     4.6030    -0.7930 o          1 B6K      -0.965000
     43 H2           0.8490    -1.9460    -0.9460 ha         1 B6K       0.130250
     44 H6           0.9300     1.9670     0.8270 ha         1 B6K       0.130250
     45 H15         -0.9450    -2.1030     0.3930 ha         1 B6K       0.130250
     46 H19         -0.9650     2.1280    -0.3140 ha         1 B6K       0.130250
@<TRIPOS>BOND
     1     1     2 ar  
     2     1    12 ar  
     3     1    13 1   
     4     2     3 ar  
     5     2    43 1   
     6     3     4 1   
     7     3     6 ar  
     8     4     5 1   
     9     5    25 1   
    10     5    26 1   
    11     5    27 1   
    12     6     7 1   
    13     6     9 ar  
    14     7     8 1   
    15     8    28 1   
    16     8    29 1   
    17     8    30 1   
    18     9    10 1   
    19     9    12 ar  
    20    10    11 1   
    21    11    31 1   
    22    11    32 1   
    23    11    33 1   
    24    12    44 1   
    25    13    14 ar  
    26    13    24 ar  
    27    14    15 ar  
    28    14    45 1   
    29    15    16 1   
    30    15    18 ar  
    31    16    17 1   
    32    17    34 1   
    33    17    35 1   
    34    17    36 1   
    35    18    19 1   
    36    18    21 ar  
    37    19    20 1   
    38    20    37 1   
    39    20    38 1   
    40    20    39 1   
    41    21    22 1   
    42    21    24 ar  
    43    22    23 1   
    44    23    40 1   
    45    23    41 1   
    46    23    42 1   
    47    24    46 1   
@<TRIPOS>SUBSTRUCTURE
     1 B6K         1 TEMP              0 ****  ****    0 ROOT
