@<TRIPOS>MOLECULE
B6K
   46    47     1     0     0
SMALL
No Charge or Current Charge


@<TRIPOS>ATOM
      1 C1           0.7280    -0.0360     0.1280 cp         1 B6K      -0.008500
      2 C2           1.4040    -1.1020    -0.5070 ca         1 B6K      -0.236750
      3 C3           2.8150    -1.1470    -0.5790 ca         1 B6K       0.180850
      4 O3           3.4790    -2.1920    -1.2000 os         1 B6K      -0.488000
      5 P3           2.9010    -3.5090    -1.9440 p5         1 B6K       1.319400
      6 C4           3.5770    -0.1030     0.0170 ca         1 B6K       0.083600
      7 O4           4.9650    -0.1500    -0.0210 os         1 B6K      -0.501000
      8 P4           5.8870     0.5670    -1.1460 p5         1 B6K       1.339900
      9 C5           2.9140     0.9540     0.7010 ca         1 B6K       0.180850
     10 O5           3.6720     1.9140     1.3520 os         1 B6K      -0.488000
     11 P5           3.2200     3.0910     2.3680 p5         1 B6K       1.319400
     12 C6           1.5020     0.9840     0.7260 ca         1 B6K      -0.236750
     13 C14         -0.7700     0.0030     0.1820 cp         1 B6K      -0.008500
     14 C15         -1.5040    -1.0830     0.7110 ca         1 B6K      -0.236750
     15 C16         -2.9150    -1.0560     0.7870 ca         1 B6K       0.180850
     16 O16         -3.6300    -2.0870     1.3730 os         1 B6K      -0.488000
     17 P16         -3.1140    -3.3710     2.2130 p5         1 B6K       1.319400
     18 C17         -3.6200     0.0710     0.2760 ca         1 B6K       0.083600
     19 O17         -5.0070     0.1160     0.3400 os         1 B6K      -0.501000
     20 P17         -6.0070    -0.4700    -0.7940 p5         1 B6K       1.339900
     21 C18         -2.8960     1.1790    -0.2470 ca         1 B6K       0.180850
     22 O18         -3.5970     2.2870    -0.6950 os         1 B6K      -0.488000
     23 P18         -3.0660     3.6820    -1.3210 p5         1 B6K       1.319400
     24 C19         -1.4840     1.1320    -0.2780 ca         1 B6K      -0.236750
     25 O31          4.0380    -4.3150    -2.4740 o          1 B6K      -0.965000
     26 O32          2.1340    -4.3560    -0.9860 o          1 B6K      -0.965000
     27 O33          2.0200    -3.1280    -3.0850 o          1 B6K      -0.965000
     28 O41          5.0620     1.2740    -2.1680 o          1 B6K      -0.978333
     29 O42          6.8070     1.5460    -0.4980 o          1 B6K      -0.978333
     30 O43          6.7340    -0.4550    -1.8260 o          1 B6K      -0.978333
     31 O51          4.4340     3.7520     2.9280 o          1 B6K      -0.965000
     32 O52          2.4110     4.1200     1.6550 o          1 B6K      -0.965000
     33 O53          2.4250     2.5330     3.5000 o          1 B6K      -0.965000
     34 O61         -2.3610    -4.3080     1.3320 o          1 B6K      -0.965000
     35 O62         -2.2410    -2.9450     3.3440 o          1 B6K      -0.965000
     36 O63         -4.2890    -4.0970     2.7760 o          1 B6K      -0.965000
     37 O71         -6.8840    -1.5210    -0.2010 o          1 B6K      -0.978333
     38 O72         -6.8940     0.6200    -1.2920 o          1 B6K      -0.978333
     39 O73         -5.2570    -1.0510    -1.9450 o          1 B6K      -0.978333
     40 O81         -2.2320     4.4160    -0.3280 o          1 B6K      -0.965000
     41 O82         -2.2680     3.4390    -2.5570 o          1 B6K      -0.965000
     42 O83         -4.2340     4.5390    -1.6750 o          1 B6K      -0.965000
     43 H2           0.8090    -1.8910    -0.9550 ha         1 B6K       0.130250
     44 H6           0.9820     1.7910     1.2320 ha         1 B6K       0.130250
     45 H15         -0.9540    -1.9400     1.0830 ha         1 B6K       0.130250
     46 H19         -0.9180     1.9700    -0.6710 ha         1 B6K       0.130250
@<TRIPOS>BOND
     1     1     2 ar  
     2     1    12 ar  
     3     1    13 1   
     4     2     3 ar  
     5     2    43 1   
     6     3     4 1   
     7     3     6 ar  
     8     4     5 1   
     9     5    25 1   
    10     5    26 1   
    11     5    27 1   
    12     6     7 1   
    13     6     9 ar  
    14     7     8 1   
    15     8    28 1   
    16     8    29 1   
    17     8    30 1   
    18     9    10 1   
    19     9    12 ar  
    20    10    11 1   
    21    11    31 1   
    22    11    32 1   
    23    11    33 1   
    24    12    44 1   
    25    13    14 ar  
    26    13    24 ar  
    27    14    15 ar  
    28    14    45 1   
    29    15    16 1   
    30    15    18 ar  
    31    16    17 1   
    32    17    34 1   
    33    17    35 1   
    34    17    36 1   
    35    18    19 1   
    36    18    21 ar  
    37    19    20 1   
    38    20    37 1   
    39    20    38 1   
    40    20    39 1   
    41    21    22 1   
    42    21    24 ar  
    43    22    23 1   
    44    23    40 1   
    45    23    41 1   
    46    23    42 1   
    47    24    46 1   
@<TRIPOS>SUBSTRUCTURE
     1 B6K         1 TEMP              0 ****  ****    0 ROOT
