@<TRIPOS>MOLECULE
B6L
   58    60     1     0     0
SMALL
No Charge or Current Charge


@<TRIPOS>ATOM
      1 CAA         -6.0870     1.4230    -0.1500 ca         1 B6L      -0.112500
      2 CAB         -7.0090     0.8390     0.7360 ca         1 B6L      -0.013000
      3 CAC         -7.8260    -0.2260     0.3030 ca         1 B6L      -0.263500
      4 CAD         -7.7140    -0.6970    -1.0210 ca         1 B6L      -0.013000
      5 CAE         -6.7900    -0.1080    -1.9010 ca         1 B6L      -0.112500
      6 CAF         -5.9710     0.9540    -1.4720 ca         1 B6L      -0.017300
      7 CAH         -4.9670     1.5860    -2.4280 c3         1 B6L      -0.127100
      8 CAI         -3.6190     0.8600    -2.3460 c          1 B6L       0.606100
      9 CAK         -1.3170     1.2040    -1.2500 ca         1 B6L      -0.006000
     10 CAL         -0.6410     2.0780    -0.3790 ca         1 B6L      -0.153500
     11 CAM          0.6920     1.8340    -0.0080 ca         1 B6L      -0.057500
     12 CAN          1.3910     0.7030    -0.4940 cp         1 B6L      -0.076000
     13 CAO          0.7050    -0.1650    -1.3770 ca         1 B6L      -0.057500
     14 CAP         -0.6290     0.0780    -1.7500 ca         1 B6L      -0.153500
     15 CAQ          2.8140     0.4560    -0.1000 cp         1 B6L      -0.035000
     16 CAR          3.2900    -0.8260     0.2720 ca         1 B6L       0.178000
     17 CAS          4.6310    -1.0260     0.6360 ca         1 B6L      -0.124000
     18 CAT          5.5610     0.0430     0.6530 ca         1 B6L      -0.127300
     19 CAU          5.0870     1.3220     0.2720 ca         1 B6L      -0.087000
     20 CAV          3.7440     1.5210    -0.0890 ca         1 B6L      -0.083000
     21 CAX          7.0450    -0.2310     1.0450 c3         1 B6L       0.108300
     22 CAY          7.7960    -0.8660    -0.1920 c3         1 B6L       0.305000
     23 CAZ          7.8170     1.0450     1.5890 c3         1 B6L       0.305000
     24 CBJ        -10.5090     0.0230     1.1630 c3         1 B6L      -0.294400
     25 CBK        -11.7100    -0.4210     2.0330 c3         1 B6L      -0.071100
     26 FAW          2.4530    -1.8880     0.3100 f          1 B6L      -0.167000
     27 FBB          8.1110     1.9380     0.6140 f          1 B6L      -0.096667
     28 FBC          7.0850     1.6900     2.5290 f          1 B6L      -0.096667
     29 FBD          8.9910     0.7050     2.1750 f          1 B6L      -0.096667
     30 FBE          9.1000    -1.1130     0.0750 f          1 B6L      -0.096667
     31 FBF          7.2370    -2.0450    -0.5580 f          1 B6L      -0.096667
     32 FBG          7.7470    -0.0540    -1.2740 f          1 B6L      -0.096667
     33 NAJ         -2.6640     1.5180    -1.5810 ns         1 B6L      -0.150000
     34 OBA          7.0200    -1.2020     2.1230 oh         1 B6L      -0.619000
     35 OBH         -9.3260    -2.3300     0.9680 o          1 B6L      -0.519500
     36 OBI         -8.5850    -0.7180     2.8130 o          1 B6L      -0.519500
     37 OBL         -3.4390    -0.2150    -2.9050 o          1 B6L      -0.553100
     38 SAG         -9.0200    -0.9700     1.4330 sy         1 B6L       1.041500
     39 H1          -5.4620     2.2430     0.1970 ha         1 B6L       0.119500
     40 H2          -7.0850     1.2190     1.7530 ha         1 B6L       0.138500
     41 H3          -8.3390    -1.5150    -1.3750 ha         1 B6L       0.138500
     42 H4          -6.7090    -0.4820    -2.9190 ha         1 B6L       0.119500
     43 H5          -5.3420     1.5140    -3.4550 hc         1 B6L       0.070700
     44 H6          -4.8370     2.6420    -2.1630 hc         1 B6L       0.070700
     45 H7          -1.1500     2.9540     0.0170 ha         1 B6L       0.132000
     46 H8           1.1870     2.5230     0.6740 ha         1 B6L       0.121000
     47 H9           1.2170    -1.0310    -1.7890 ha         1 B6L       0.121000
     48 H10         -1.1030    -0.6180    -2.4340 ha         1 B6L       0.132000
     49 H11          4.9410    -2.0330     0.9030 ha         1 B6L       0.145000
     50 H12          5.7440     2.1860     0.2400 ha         1 B6L       0.137000
     51 H13          3.4210     2.5180    -0.3810 ha         1 B6L       0.128000
     52 H14        -10.7590    -0.0600     0.0990 h1         1 B6L       0.092700
     53 H15        -10.2430     1.0630     1.3840 h1         1 B6L       0.092700
     54 H16        -11.4720    -0.3400     3.1010 hc         1 B6L       0.053700
     55 H17        -12.5820     0.2110     1.8310 hc         1 B6L       0.053700
     56 H18        -11.9870    -1.4610     1.8180 hc         1 B6L       0.053700
     57 H19         -2.9870     2.3890    -1.1800 hn         1 B6L       0.149000
     58 H20          6.4000    -0.8640     2.8060 ho         1 B6L       0.481000
@<TRIPOS>BOND
     1     1     2 ar  
     2     1     6 ar  
     3     1    39 1   
     4     2     3 ar  
     5     2    40 1   
     6     3     4 ar  
     7     3    38 1   
     8     4     5 ar  
     9     4    41 1   
    10     5     6 ar  
    11     5    42 1   
    12     6     7 1   
    13     7     8 1   
    14     7    43 1   
    15     7    44 1   
    16     8    33 1   
    17     8    37 2   
    18     9    10 ar  
    19     9    14 ar  
    20     9    33 1   
    21    10    11 ar  
    22    10    45 1   
    23    11    12 ar  
    24    11    46 1   
    25    12    13 ar  
    26    12    15 1   
    27    13    14 ar  
    28    13    47 1   
    29    14    48 1   
    30    15    16 ar  
    31    15    20 ar  
    32    16    17 ar  
    33    16    26 1   
    34    17    18 ar  
    35    17    49 1   
    36    18    19 ar  
    37    18    21 1   
    38    19    20 ar  
    39    19    50 1   
    40    20    51 1   
    41    21    22 1   
    42    21    23 1   
    43    21    34 1   
    44    22    30 1   
    45    22    31 1   
    46    22    32 1   
    47    23    27 1   
    48    23    28 1   
    49    23    29 1   
    50    24    25 1   
    51    24    38 1   
    52    24    52 1   
    53    24    53 1   
    54    25    54 1   
    55    25    55 1   
    56    25    56 1   
    57    33    57 1   
    58    34    58 1   
    59    35    38 2   
    60    36    38 2   
@<TRIPOS>SUBSTRUCTURE
     1 B6L         1 TEMP              0 ****  ****    0 ROOT
