@<TRIPOS>MOLECULE
B6L
   58    60     1     0     0
SMALL
abcg2


@<TRIPOS>ATOM
      1 CAA         -6.6050     1.0650     0.8990 ca         1 B6L      -0.112500
      2 CAB         -7.7220     0.2790     1.1270 ca         1 B6L      -0.013000
      3 CAC         -8.2850    -0.4140     0.0630 ca         1 B6L      -0.263500
      4 CAD         -7.7490    -0.3310    -1.2140 ca         1 B6L      -0.013000
      5 CAE         -6.6300     0.4590    -1.4230 ca         1 B6L      -0.112500
      6 CAF         -6.0470     1.1610    -0.3730 ca         1 B6L      -0.017300
      7 CAH         -4.8160     1.9840    -0.5940 c3         1 B6L      -0.127100
      8 CAI         -3.5500     1.1840    -0.3210 c          1 B6L       0.606100
      9 CAK         -1.0850     1.5300    -0.3370 ca         1 B6L      -0.006000
     10 CAL         -0.1190     2.5180    -0.5420 ca         1 B6L      -0.153500
     11 CAM          1.2250     2.2340    -0.3970 ca         1 B6L      -0.057500
     12 CAN          1.6560     0.9570    -0.0370 cp         1 B6L      -0.076000
     13 CAO          0.6860    -0.0220     0.1640 ca         1 B6L      -0.057500
     14 CAP         -0.6660     0.2460     0.0150 ca         1 B6L      -0.153500
     15 CAQ          3.0960     0.6660     0.0820 cp         1 B6L      -0.035000
     16 CAR          3.6390    -0.0120     1.1640 ca         1 B6L       0.178000
     17 CAS          4.9850    -0.2900     1.2850 ca         1 B6L      -0.124000
     18 CAT          5.8660     0.1300     0.2950 ca         1 B6L      -0.127300
     19 CAU          5.3560     0.8150    -0.8050 ca         1 B6L      -0.087000
     20 CAV          4.0000     1.0760    -0.8970 ca         1 B6L      -0.083000
     21 CAX          7.3390    -0.2410     0.4490 c3         1 B6L       0.108300
     22 CAY          7.5950    -1.5410    -0.3490 c3         1 B6L       0.305000
     23 CAZ          8.2860     0.9050    -0.0030 c3         1 B6L       0.305000
     24 CBJ        -11.0940    -0.3020     0.0960 c3         1 B6L      -0.294400
     25 CBK        -12.4130    -1.0320     0.2870 c3         1 B6L      -0.071100
     26 FAW          2.8300    -0.4120     2.1550 f          1 B6L      -0.167000
     27 FBB          8.2770     1.1250    -1.3180 f          1 B6L      -0.096667
     28 FBC          7.9240     2.0390     0.6020 f          1 B6L      -0.096667
     29 FBD          9.5450     0.6540     0.3420 f          1 B6L      -0.096667
     30 FBE          8.8600    -1.9480    -0.2620 f          1 B6L      -0.096667
     31 FBF          6.8270    -2.5170     0.1290 f          1 B6L      -0.096667
     32 FBG          7.3050    -1.3930    -1.6400 f          1 B6L      -0.096667
     33 NAJ         -2.4170     1.9090    -0.5080 ns         1 B6L      -0.150000
     34 OBA          7.6830    -0.5720     1.7530 oh         1 B6L      -0.619000
     35 OBH         -9.7660    -2.4470    -0.7000 o          1 B6L      -0.519500
     36 OBI         -9.7150    -1.8510     1.7390 o          1 B6L      -0.519500
     37 OBL         -3.5720     0.0220     0.0290 o          1 B6L      -0.553100
     38 SAG         -9.7160    -1.4200     0.3410 sy         1 B6L       1.041500
     39 H1          -6.1610     1.6080     1.7240 ha         1 B6L       0.119500
     40 H2          -8.1390     0.2090     2.1220 ha         1 B6L       0.138500
     41 H3          -8.1890    -0.8740    -2.0400 ha         1 B6L       0.138500
     42 H4          -6.2070     0.5260    -2.4170 ha         1 B6L       0.119500
     43 H5          -4.7800     2.3630    -1.6190 hc         1 B6L       0.070700
     44 H6          -4.8210     2.8620     0.0580 hc         1 B6L       0.070700
     45 H7          -0.4230     3.5210    -0.8150 ha         1 B6L       0.132000
     46 H8           1.9480     3.0260    -0.5520 ha         1 B6L       0.121000
     47 H9           0.9770    -1.0330     0.4170 ha         1 B6L       0.121000
     48 H10         -1.3760    -0.5480     0.1690 ha         1 B6L       0.132000
     49 H11          5.3170    -0.8340     2.1590 ha         1 B6L       0.145000
     50 H12          5.9820     1.1530    -1.6160 ha         1 B6L       0.137000
     51 H13          3.6280     1.5970    -1.7700 ha         1 B6L       0.128000
     52 H14        -10.9960     0.1080    -0.9100 h1         1 B6L       0.092700
     53 H15        -10.9730     0.5110     0.8140 h1         1 B6L       0.092700
     54 H16        -12.5020    -1.4470     1.2890 hc         1 B6L       0.053700
     55 H17        -13.2280    -0.3240     0.1470 hc         1 B6L       0.053700
     56 H18        -12.5390    -1.8330    -0.4390 hc         1 B6L       0.053700
     57 H19         -2.5510     2.8680    -0.7940 hn         1 B6L       0.149000
     58 H20          7.3670     0.1010     2.3700 ho         1 B6L       0.481000
@<TRIPOS>BOND
     1     1     2 ar  
     2     1     6 ar  
     3     1    39 1   
     4     2     3 ar  
     5     2    40 1   
     6     3     4 ar  
     7     3    38 1   
     8     4     5 ar  
     9     4    41 1   
    10     5     6 ar  
    11     5    42 1   
    12     6     7 1   
    13     7     8 1   
    14     7    43 1   
    15     7    44 1   
    16     8    33 1   
    17     8    37 2   
    18     9    10 ar  
    19     9    14 ar  
    20     9    33 1   
    21    10    11 ar  
    22    10    45 1   
    23    11    12 ar  
    24    11    46 1   
    25    12    13 ar  
    26    12    15 1   
    27    13    14 ar  
    28    13    47 1   
    29    14    48 1   
    30    15    16 ar  
    31    15    20 ar  
    32    16    17 ar  
    33    16    26 1   
    34    17    18 ar  
    35    17    49 1   
    36    18    19 ar  
    37    18    21 1   
    38    19    20 ar  
    39    19    50 1   
    40    20    51 1   
    41    21    22 1   
    42    21    23 1   
    43    21    34 1   
    44    22    30 1   
    45    22    31 1   
    46    22    32 1   
    47    23    27 1   
    48    23    28 1   
    49    23    29 1   
    50    24    25 1   
    51    24    38 1   
    52    24    52 1   
    53    24    53 1   
    54    25    54 1   
    55    25    55 1   
    56    25    56 1   
    57    33    57 1   
    58    34    58 1   
    59    35    38 2   
    60    36    38 2   
@<TRIPOS>SUBSTRUCTURE
     1 B6L         1 TEMP              0 ****  ****    0 ROOT
