@<TRIPOS>MOLECULE
B6M
   87    90     1     0     0
SMALL
No Charge or Current Charge


@<TRIPOS>ATOM
      1 C11         -3.7120     0.7780    -0.5020 c6         1 B6M       0.392300
      2 O11         -3.6070    -0.2590     0.4940 os         1 B6M      -0.436000
      3 C21         -3.1700     2.1650     0.0200 c6         1 B6M       0.152500
      4 N21         -1.7200     2.1480     0.4390 n8         1 B6M      -0.973200
      5 C31         -4.1260     2.7940     1.0970 c6         1 B6M       0.187300
      6 O31         -4.0410     2.1500     2.3800 oh         1 B6M      -0.613000
      7 C41         -5.6090     2.7650     0.6100 c6         1 B6M       0.099300
      8 O41         -6.4820     3.2200     1.6700 oh         1 B6M      -0.722000
      9 C51         -6.0020     1.3320     0.1220 c6         1 B6M       0.143300
     10 O51         -5.0890     0.8900    -0.9180 os         1 B6M      -0.474000
     11 C61         -7.4590     1.2770    -0.4490 c3         1 B6M       0.166600
     12 O61         -7.8270    -0.0210    -0.9560 oh         1 B6M      -0.706000
     13 C12         -1.6820    -4.1020     0.2870 c6         1 B6M       0.119500
     14 N12         -1.2300    -5.4790    -0.0690 n8         1 B6M      -1.021200
     15 C22         -3.1230    -4.0640     0.8400 c6         1 B6M      -0.095400
     16 C32         -3.5330    -2.6100     1.2120 c6         1 B6M       0.169500
     17 N32         -2.8130    -2.1670     2.4320 n8         1 B6M      -0.988200
     18 C42         -3.3340    -1.6030     0.0160 c6         1 B6M       0.174300
     19 C52         -1.8920    -1.7020    -0.6030 c6         1 B6M       0.179300
     20 O52         -0.9360    -1.0830     0.2950 os         1 B6M      -0.418000
     21 C62         -1.5720    -3.1930    -0.9590 c6         1 B6M       0.160300
     22 O62         -0.2800    -3.4480    -1.5090 oh         1 B6M      -0.717000
     23 C13          0.3200    -0.6400    -0.2540 c5         1 B6M       0.360300
     24 C23          1.1620    -0.0610     0.9270 c5         1 B6M       0.147300
     25 O23          0.4170     0.8400     1.7830 oh         1 B6M      -0.734000
     26 C33          2.2260     0.7190     0.0780 c5         1 B6M       0.088300
     27 O33          3.2880    -0.1960    -0.3160 os         1 B6M      -0.468000
     28 C43          1.4380     1.1110    -1.2260 c5         1 B6M       0.170300
     29 O43          0.1170     0.5370    -1.0470 os         1 B6M      -0.484000
     30 C53          1.3460     2.6440    -1.4740 c3         1 B6M       0.153600
     31 O53          0.7280     2.9420    -2.7390 oh         1 B6M      -0.709000
     32 C14          4.2700    -0.5440     0.6860 c6         1 B6M       0.395300
     33 C24          5.1970    -1.7360     0.2200 c6         1 B6M       0.139500
     34 N24          5.9220    -2.3990     1.3650 n8         1 B6M      -0.998200
     35 C34          6.2130    -1.2720    -0.8820 c6         1 B6M       0.153300
     36 O34          5.5870    -1.1070    -2.1630 oh         1 B6M      -0.641000
     37 C44          6.9280     0.0530    -0.4800 c6         1 B6M       0.100300
     38 O44          7.7560     0.5110    -1.5780 oh         1 B6M      -0.730000
     39 C54          5.8780     1.1330    -0.0610 c6         1 B6M       0.182300
     40 O54          5.0500     0.6270     1.0180 os         1 B6M      -0.445000
     41 C64          6.5580     2.4590     0.4340 c3         1 B6M       0.152800
     42 N64          5.6330     3.5710     0.7970 n8         1 B6M      -0.983200
     43 H1          -3.1070     0.5120    -1.3800 h2         1 B6M       0.066700
     44 H2          -3.1980     2.8400    -0.8480 h1         1 B6M       0.024700
     45 H3          -1.1670     1.8420    -0.3780 hn         1 B6M       0.407000
     46 H4          -1.4230     3.1190     0.5900 hn         1 B6M       0.407000
     47 H6          -3.8390     3.8490     1.2150 h1         1 B6M       0.030700
     48 H7          -4.9260     2.3110     2.7780 ho         1 B6M       0.451000
     49 H8          -5.6950     3.4410    -0.2540 h1         1 B6M       0.040700
     50 H9          -6.5780     4.1990     1.5760 ho         1 B6M       0.509000
     51 H10         -5.9500     0.6320     0.9690 h1         1 B6M       0.080700
     52 H11         -8.1540     1.5710     0.3490 h1         1 B6M       0.021700
     53 H12         -7.5430     2.0270    -1.2460 h1         1 B6M       0.021700
     54 H13         -8.7260     0.0700    -1.3510 ho         1 B6M       0.502000
     55 H14         -0.9930    -3.7140     1.0580 h1         1 B6M       0.103700
     56 H16         -1.9880    -5.9570    -0.5760 hn         1 B6M       0.399500
     57 H18         -3.8240    -4.4590     0.0910 hc         1 B6M       0.037200
     58 H19         -3.2110    -4.7160     1.7200 hc         1 B6M       0.037200
     59 H20         -4.6010    -2.6250     1.4780 h1         1 B6M       0.028700
     60 H21         -1.8960    -1.8230     2.1220 hn         1 B6M       0.406500
     61 H22         -3.2590    -1.2940     2.7350 hn         1 B6M       0.406500
     62 H24         -4.0690    -1.8520    -0.7640 h1         1 B6M       0.046700
     63 H25         -1.8880    -1.1390    -1.5460 h1         1 B6M       0.064700
     64 H26         -2.3280    -3.5250    -1.6860 h1         1 B6M       0.019700
     65 H27         -0.1480    -4.3820    -1.1850 ho         1 B6M       0.530000
     66 H28          0.8540    -1.4230    -0.8050 h2         1 B6M       0.061700
     67 H29          1.6120    -0.8690     1.5190 h1         1 B6M       0.078700
     68 H30         -0.4220     1.0770     1.2900 ho         1 B6M       0.565000
     69 H31          2.6470     1.5870     0.6030 h1         1 B6M       0.091700
     70 H32          1.9060     0.6470    -2.1060 h1         1 B6M       0.080700
     71 H33          0.7870     3.1090    -0.6510 h1         1 B6M       0.025700
     72 H34          2.3640     3.0560    -1.4520 h1         1 B6M       0.025700
     73 H35          0.7300     3.9220    -2.8390 ho         1 B6M       0.493000
     74 H36          3.7410    -0.8760     1.5920 h2         1 B6M       0.072700
     75 H37          4.5480    -2.5090    -0.2210 h1         1 B6M       0.062700
     76 H38          5.2360    -2.8080     2.0110 hn         1 B6M       0.400000
     77 H39          6.4290    -3.2190     1.0110 hn         1 B6M       0.400000
     78 H41          6.9830    -2.0520    -0.9790 h1         1 B6M       0.022700
     79 H42          6.1590    -0.4490    -2.6210 ho         1 B6M       0.455000
     80 H43          7.5560    -0.1540     0.4010 h1         1 B6M       0.066700
     81 H44          8.6180     0.0330    -1.5180 ho         1 B6M       0.506000
     82 H45          5.2390     1.3770    -0.9220 h1         1 B6M       0.058700
     83 H46          7.1790     2.2240     1.3100 h1         1 B6M       0.043700
     84 H47          7.2270     2.8230    -0.3580 h1         1 B6M       0.043700
     85 H48          6.1860     4.3980     1.0520 hn         1 B6M       0.387500
     86 H49          5.1210     3.8700    -0.0410 hn         1 B6M       0.387500
     87 H15         -1.1510    -6.0350     0.7930 hn         1 B6M       0.399500
@<TRIPOS>BOND
     1     1     2 1   
     2     1     3 1   
     3     1    10 1   
     4     1    43 1   
     5     2    18 1   
     6     3     4 1   
     7     3     5 1   
     8     3    44 1   
     9     4    45 1   
    10     4    46 1   
    11     5     6 1   
    12     5     7 1   
    13     5    47 1   
    14     6    48 1   
    15     7     8 1   
    16     7     9 1   
    17     7    49 1   
    18     8    50 1   
    19     9    10 1   
    20     9    11 1   
    21     9    51 1   
    22    11    12 1   
    23    11    52 1   
    24    11    53 1   
    25    12    54 1   
    26    13    14 1   
    27    13    15 1   
    28    13    21 1   
    29    13    55 1   
    30    14    56 1   
    31    14    87 1   
    32    15    16 1   
    33    15    57 1   
    34    15    58 1   
    35    16    17 1   
    36    16    18 1   
    37    16    59 1   
    38    17    60 1   
    39    17    61 1   
    40    18    19 1   
    41    18    62 1   
    42    19    20 1   
    43    19    21 1   
    44    19    63 1   
    45    20    23 1   
    46    21    22 1   
    47    21    64 1   
    48    22    65 1   
    49    23    24 1   
    50    23    29 1   
    51    23    66 1   
    52    24    25 1   
    53    24    26 1   
    54    24    67 1   
    55    25    68 1   
    56    26    27 1   
    57    26    28 1   
    58    26    69 1   
    59    27    32 1   
    60    28    29 1   
    61    28    30 1   
    62    28    70 1   
    63    30    31 1   
    64    30    71 1   
    65    30    72 1   
    66    31    73 1   
    67    32    33 1   
    68    32    40 1   
    69    32    74 1   
    70    33    34 1   
    71    33    35 1   
    72    33    75 1   
    73    34    76 1   
    74    34    77 1   
    75    35    36 1   
    76    35    37 1   
    77    35    78 1   
    78    36    79 1   
    79    37    38 1   
    80    37    39 1   
    81    37    80 1   
    82    38    81 1   
    83    39    40 1   
    84    39    41 1   
    85    39    82 1   
    86    41    42 1   
    87    41    83 1   
    88    41    84 1   
    89    42    85 1   
    90    42    86 1   
@<TRIPOS>SUBSTRUCTURE
     1 B6M         1 TEMP              0 ****  ****    0 ROOT
