@<TRIPOS>MOLECULE
B6M
   87    90     1     0     0
SMALL
bcc


@<TRIPOS>ATOM
      1 C11         -3.6110     0.9660    -0.7910 c6         1 B6M       0.345900
      2 O11         -3.0530    -0.0230    -0.0120 os         1 B6M      -0.389600
      3 C21         -3.0090     2.3100    -0.3780 c6         1 B6M       0.152500
      4 N21         -1.5580     2.2510    -0.4100 n8         1 B6M      -0.862800
      5 C31         -3.5250     2.7810     0.9790 c6         1 B6M       0.164100
      6 O31         -2.9720     2.0090     2.0130 oh         1 B6M      -0.550800
      7 C41         -5.0540     2.7180     0.9800 c6         1 B6M       0.076100
      8 O41         -5.4880     3.0860     2.2700 oh         1 B6M      -0.599800
      9 C51         -5.5160     1.3110     0.5930 c6         1 B6M       0.120100
     10 O51         -5.0080     0.9980    -0.6960 os         1 B6M      -0.427600
     11 C61         -7.0210     1.1900     0.5210 c3         1 B6M       0.143400
     12 O61         -7.3590    -0.1520     0.2570 oh         1 B6M      -0.583800
     13 C12         -2.2350    -4.0990    -0.0130 c6         1 B6M       0.119500
     14 N12         -2.0580    -5.5110    -0.3270 n8         1 B6M      -0.910800
     15 C22         -3.6540    -3.6800     0.3520 c6         1 B6M      -0.095400
     16 C32         -3.7390    -2.1920     0.6900 c6         1 B6M       0.169500
     17 N32         -3.0560    -1.9350     1.9490 n8         1 B6M      -0.877800
     18 C42         -3.1460    -1.3550    -0.4500 c6         1 B6M       0.151100
     19 C52         -1.7640    -1.7990    -0.9450 c6         1 B6M       0.156100
     20 O52         -0.8260    -1.4260     0.0370 os         1 B6M      -0.371600
     21 C62         -1.7740    -3.2950    -1.2280 c6         1 B6M       0.137100
     22 O62         -0.5090    -3.7200    -1.6640 oh         1 B6M      -0.594800
     23 C13          0.4450    -1.0490    -0.3250 c5         1 B6M       0.313900
     24 C23          1.0980    -0.2260     0.7820 c5         1 B6M       0.124100
     25 O23          0.2710     0.7650     1.3160 oh         1 B6M      -0.611800
     26 C33          2.2800     0.3640    -0.0050 c5         1 B6M       0.065100
     27 O33          3.3660    -0.5340    -0.0890 os         1 B6M      -0.421600
     28 C43          1.6970     0.5270    -1.4210 c5         1 B6M       0.147100
     29 O43          0.4530    -0.1590    -1.4290 os         1 B6M      -0.437600
     30 C53          1.5100     1.9870    -1.7690 c3         1 B6M       0.130400
     31 O53          0.8110     2.0930    -2.9850 oh         1 B6M      -0.586800
     32 C14          4.2750    -0.4950     0.9700 c6         1 B6M       0.348900
     33 C24          5.3670    -1.5330     0.6970 c6         1 B6M       0.139500
     34 N24          6.1100    -1.7380     1.9310 n8         1 B6M      -0.887800
     35 C34          6.3470    -1.0450    -0.3720 c6         1 B6M       0.130100
     36 O34          5.7440    -1.1620    -1.6350 oh         1 B6M      -0.578800
     37 C44          6.7880     0.4000    -0.1050 c6         1 B6M       0.077100
     38 O44          7.5260     0.8880    -1.2080 oh         1 B6M      -0.607800
     39 C54          5.5740     1.3000     0.0970 c6         1 B6M       0.159100
     40 O54          4.8020     0.7790     1.1670 os         1 B6M      -0.398600
     41 C64          5.9380     2.7280     0.4630 c3         1 B6M       0.152800
     42 N64          4.7480     3.5650     0.5280 n8         1 B6M      -0.872800
     43 H1          -3.4100     0.7930    -1.8590 h2         1 B6M       0.066700
     44 H2          -3.4030     3.0350    -1.1050 h1         1 B6M       0.024700
     45 H3          -1.2570     1.9610    -1.3340 hn         1 B6M       0.351800
     46 H4          -1.1920     3.1880    -0.2850 hn         1 B6M       0.351800
     47 H6          -3.2340     3.8380     1.0930 h1         1 B6M       0.030700
     48 H7          -3.2960     2.3690     2.8450 ho         1 B6M       0.412000
     49 H8          -5.4220     3.4250     0.2220 h1         1 B6M       0.040700
     50 H9          -6.3800     3.4400     2.2170 ho         1 B6M       0.410000
     51 H10         -5.1440     0.6000     1.3420 h1         1 B6M       0.080700
     52 H11         -7.4440     1.5240     1.4760 h1         1 B6M       0.021700
     53 H12         -7.4040     1.8680    -0.2560 h1         1 B6M       0.021700
     54 H13         -8.3170    -0.2250     0.2750 ho         1 B6M       0.403000
     55 H14         -1.5710    -3.8660     0.8240 h1         1 B6M       0.103700
     56 H16         -2.8230    -5.8430    -0.9030 hn         1 B6M       0.344300
     57 H18         -4.3280    -3.9070    -0.4830 hc         1 B6M       0.037200
     58 H19         -4.0130    -4.2670     1.2030 hc         1 B6M       0.037200
     59 H20         -4.8030    -1.9130     0.7360 h1         1 B6M       0.028700
     60 H21         -2.9170    -0.9380     2.0580 hn         1 B6M       0.351300
     61 H22         -3.6630    -2.2210     2.7070 hn         1 B6M       0.351300
     62 H24         -3.8350    -1.4530    -1.3000 h1         1 B6M       0.046700
     63 H25         -1.5640    -1.2690    -1.8840 h1         1 B6M       0.064700
     64 H26         -2.5260    -3.4530    -2.0240 h1         1 B6M       0.019700
     65 H27         -0.5030    -4.6730    -1.4750 ho         1 B6M       0.431000
     66 H28          1.0700    -1.9240    -0.5620 h2         1 B6M       0.061700
     67 H29          1.4490    -0.8610     1.6040 h1         1 B6M       0.078700
     68 H30         -0.4410     1.0650     0.7060 ho         1 B6M       0.466000
     69 H31          2.5950     1.3250     0.4160 h1         1 B6M       0.091700
     70 H32          2.3790     0.0650    -2.1460 h1         1 B6M       0.080700
     71 H33          0.9900     2.4980    -0.9500 h1         1 B6M       0.025700
     72 H34          2.5120     2.4350    -1.8320 h1         1 B6M       0.025700
     73 H35          0.7270     3.0260    -3.2020 ho         1 B6M       0.394000
     74 H36          3.7760    -0.7370     1.9210 h2         1 B6M       0.072700
     75 H37          4.8820    -2.4500     0.3310 h1         1 B6M       0.062700
     76 H38          5.5010    -2.1410     2.6320 hn         1 B6M       0.344800
     77 H39          6.8340    -2.4290     1.7740 hn         1 B6M       0.344800
     78 H41          7.2430    -1.6870    -0.3200 h1         1 B6M       0.022700
     79 H42          6.3020    -0.6840    -2.2590 ho         1 B6M       0.416000
     80 H43          7.3880     0.4170     0.8130 h1         1 B6M       0.066700
     81 H44          8.4210     0.5350    -1.1580 ho         1 B6M       0.407000
     82 H45          4.9860     1.3170    -0.8320 h1         1 B6M       0.058700
     83 H46          6.4180     2.7270     1.4460 h1         1 B6M       0.043700
     84 H47          6.6880     3.0880    -0.2500 h1         1 B6M       0.043700
     85 H48          4.9990     4.4680     0.9090 hn         1 B6M       0.332300
     86 H49          4.4200     3.7520    -0.4110 hn         1 B6M       0.332300
     87 H15         -2.0740    -6.0680     0.5170 hn         1 B6M       0.344300
@<TRIPOS>BOND
     1     1     2 1   
     2     1     3 1   
     3     1    10 1   
     4     1    43 1   
     5     2    18 1   
     6     3     4 1   
     7     3     5 1   
     8     3    44 1   
     9     4    45 1   
    10     4    46 1   
    11     5     6 1   
    12     5     7 1   
    13     5    47 1   
    14     6    48 1   
    15     7     8 1   
    16     7     9 1   
    17     7    49 1   
    18     8    50 1   
    19     9    10 1   
    20     9    11 1   
    21     9    51 1   
    22    11    12 1   
    23    11    52 1   
    24    11    53 1   
    25    12    54 1   
    26    13    14 1   
    27    13    15 1   
    28    13    21 1   
    29    13    55 1   
    30    14    56 1   
    31    14    87 1   
    32    15    16 1   
    33    15    57 1   
    34    15    58 1   
    35    16    17 1   
    36    16    18 1   
    37    16    59 1   
    38    17    60 1   
    39    17    61 1   
    40    18    19 1   
    41    18    62 1   
    42    19    20 1   
    43    19    21 1   
    44    19    63 1   
    45    20    23 1   
    46    21    22 1   
    47    21    64 1   
    48    22    65 1   
    49    23    24 1   
    50    23    29 1   
    51    23    66 1   
    52    24    25 1   
    53    24    26 1   
    54    24    67 1   
    55    25    68 1   
    56    26    27 1   
    57    26    28 1   
    58    26    69 1   
    59    27    32 1   
    60    28    29 1   
    61    28    30 1   
    62    28    70 1   
    63    30    31 1   
    64    30    71 1   
    65    30    72 1   
    66    31    73 1   
    67    32    33 1   
    68    32    40 1   
    69    32    74 1   
    70    33    34 1   
    71    33    35 1   
    72    33    75 1   
    73    34    76 1   
    74    34    77 1   
    75    35    36 1   
    76    35    37 1   
    77    35    78 1   
    78    36    79 1   
    79    37    38 1   
    80    37    39 1   
    81    37    80 1   
    82    38    81 1   
    83    39    40 1   
    84    39    41 1   
    85    39    82 1   
    86    41    42 1   
    87    41    83 1   
    88    41    84 1   
    89    42    85 1   
    90    42    86 1   
@<TRIPOS>SUBSTRUCTURE
     1 B6M         1 TEMP              0 ****  ****    0 ROOT
