@<TRIPOS>MOLECULE
B6O
   48    52     1     0     0
SMALL
No Charge or Current Charge


@<TRIPOS>ATOM
      1 C13        -26.4920    21.6490    23.0300 ca         1 B6O      -0.148500
      2 C17        -25.2080    24.0250    23.7730 ca         1 B6O       0.217000
      3 C20        -23.3040    23.5850    22.1490 cp         1 B6O      -0.003000
      4 C21        -23.1680    23.6190    20.7420 ca         1 B6O      -0.140000
      5 C22        -21.9510    23.9790    20.1450 ca         1 B6O      -0.066000
      6 C24        -20.9460    24.2880    22.3520 ca         1 B6O       0.343000
      7 C28        -19.6570    24.0520    24.5190 c3         1 B6O       0.222600
      8 C1         -34.0920    21.4970    21.6750 ca         1 B6O      -0.090000
      9 C2         -33.2230    21.9480    20.6720 ca         1 B6O      -0.098000
     10 C3         -31.8730    22.1930    20.9700 ca         1 B6O      -0.063000
     11 C4         -31.3730    21.9890    22.2770 ca         1 B6O      -0.137600
     12 C5         -29.9110    22.2640    22.5660 c          1 B6O       0.625300
     13 O6         -29.1450    22.6760    21.7050 o          1 B6O      -0.489100
     14 C7         -29.4870    22.0060    23.9480 cc         1 B6O      -0.224600
     15 C8         -30.3180    21.5740    24.9460 cd         1 B6O       0.159500
     16 N9         -29.5900    21.4530    26.1270 nd         1 B6O      -0.294000
     17 N10        -28.3420    21.7840    25.9070 nc         1 B6O      -0.168800
     18 N11        -28.2920    22.1270    24.5970 na         1 B6O       0.251000
     19 C12        -27.0800    22.4800    24.0010 ca         1 B6O       0.041800
     20 C14        -25.2750    22.0070    22.4310 ca         1 B6O       0.217000
     21 F15        -24.7390    21.1680    21.5170 f          1 B6O      -0.155000
     22 C16        -24.6020    23.2040    22.7870 cp         1 B6O      -0.101000
     23 F18        -24.6290    25.1900    24.1420 f          1 B6O      -0.155000
     24 C19        -26.4260    23.6690    24.3710 ca         1 B6O      -0.148500
     25 C23        -20.8480    24.3120    20.9470 ca         1 B6O      -0.182000
     26 C25        -22.1770    23.9230    22.9360 ca         1 B6O      -0.168000
     27 N26        -19.8280    24.6220    23.1610 nh         1 B6O      -0.836400
     28 C27        -18.7810    25.5580    22.6870 c3         1 B6O       0.222600
     29 C29        -31.7650    21.3020    24.7090 c          1 B6O       0.514200
     30 O30        -32.5190    20.9160    25.5970 o          1 B6O      -0.470100
     31 C31        -32.2580    21.5320    23.2950 ca         1 B6O      -0.126600
     32 C32        -33.6140    21.2900    22.9780 ca         1 B6O      -0.067000
     33 H131       -26.9760    20.7200    22.7370 ha         1 B6O       0.156000
     34 H211       -24.0180    23.3710    20.1100 ha         1 B6O       0.119000
     35 H221       -21.8630    24.0000    19.0600 ha         1 B6O       0.111000
     36 H283       -18.5970    24.0430    24.8080 h1         1 B6O       0.035867
     37 H281       -20.2140    24.6430    25.2580 h1         1 B6O       0.035867
     38 H282       -20.0170    23.0150    24.5510 h1         1 B6O       0.035867
     39 H011       -35.1380    21.3070    21.4430 ha         1 B6O       0.125000
     40 H021       -33.5940    22.1080    19.6620 ha         1 B6O       0.125000
     41 H031       -31.2150    22.5430    20.1760 ha         1 B6O       0.138000
     42 H191       -26.8650    24.3250    25.1190 ha         1 B6O       0.156000
     43 H231       -19.9120    24.5780    20.4660 ha         1 B6O       0.113000
     44 H251       -22.2720    23.9030    24.0160 ha         1 B6O       0.116000
     45 H271       -18.2730    26.0380    23.5340 h1         1 B6O       0.035867
     46 H272       -18.0310    25.0240    22.0870 h1         1 B6O       0.035867
     47 H273       -19.2230    26.3540    22.0730 h1         1 B6O       0.035867
     48 H321       -34.3050    20.9400    23.7430 ha         1 B6O       0.142000
@<TRIPOS>BOND
     1     1    19 ar  
     2     1    20 ar  
     3     1    33 1   
     4     2    22 ar  
     5     2    23 1   
     6     2    24 ar  
     7     3     4 ar  
     8     3    22 1   
     9     3    26 ar  
    10     4     5 ar  
    11     4    34 1   
    12     5    25 ar  
    13     5    35 1   
    14     6    25 ar  
    15     6    26 ar  
    16     6    27 1   
    17     7    27 1   
    18     7    36 1   
    19     7    37 1   
    20     7    38 1   
    21     8     9 ar  
    22     8    32 ar  
    23     8    39 1   
    24     9    10 ar  
    25     9    40 1   
    26    10    11 ar  
    27    10    41 1   
    28    11    12 1   
    29    11    31 ar  
    30    12    13 2   
    31    12    14 1   
    32    14    15 2   
    33    14    18 1   
    34    15    16 1   
    35    15    29 1   
    36    16    17 2   
    37    17    18 1   
    38    18    19 1   
    39    19    24 ar  
    40    20    21 1   
    41    20    22 ar  
    42    24    42 1   
    43    25    43 1   
    44    26    44 1   
    45    27    28 1   
    46    28    45 1   
    47    28    46 1   
    48    28    47 1   
    49    29    30 2   
    50    29    31 1   
    51    31    32 ar  
    52    32    48 1   
@<TRIPOS>SUBSTRUCTURE
     1 B6O         1 TEMP              0 ****  ****    0 ROOT
