@<TRIPOS>MOLECULE
B6O
   48    52     1     0     0
SMALL
bcc


@<TRIPOS>ATOM
      1 C13        -26.4810    21.9270    22.8730 ca         1 B6O      -0.166500
      2 C17        -25.2500    24.2440    23.7280 ca         1 B6O       0.181900
      3 C20        -23.3220    23.8990    22.1540 cp         1 B6O      -0.003000
      4 C21        -23.2640    24.2680    20.8140 ca         1 B6O      -0.158000
      5 C22        -22.0370    24.6430    20.2850 ca         1 B6O      -0.084000
      6 C24        -20.9300    24.2740    22.4150 ca         1 B6O       0.204600
      7 C28        -19.8890    23.9400    24.5880 c3         1 B6O       0.222600
      8 C1         -34.0230    21.1100    21.8080 ca         1 B6O      -0.108000
      9 C2         -33.2030    21.4610    20.7460 ca         1 B6O      -0.116000
     10 C3         -31.8780    21.8000    20.9760 ca         1 B6O      -0.081000
     11 C4         -31.3620    21.7870    22.2660 ca         1 B6O      -0.137600
     12 C5         -29.9330    22.1610    22.4500 c          1 B6O       0.625300
     13 O6         -29.2130    22.5140    21.5470 o          1 B6O      -0.489100
     14 C7         -29.4830    22.0730    23.8430 cc         1 B6O      -0.239200
     15 C8         -30.2930    21.7560    24.9010 cd         1 B6O       0.224800
     16 N9         -29.5800    21.8490    26.0390 nd         1 B6O      -0.294000
     17 N10        -28.3850    22.2010    25.7380 nc         1 B6O      -0.168800
     18 N11        -28.2980    22.3450    24.4160 na         1 B6O       0.200300
     19 C12        -27.0630    22.7320    23.8370 ca         1 B6O       0.041800
     20 C14        -25.2720    22.3370    22.3510 ca         1 B6O       0.181900
     21 F15        -24.6920    21.5680    21.4270 f          1 B6O      -0.119900
     22 C16        -24.6140    23.4930    22.7490 cp         1 B6O      -0.101000
     23 F18        -24.6670    25.3720    24.1370 f          1 B6O      -0.119900
     24 C19        -26.4640    23.8960    24.2850 ca         1 B6O      -0.166500
     25 C23        -20.8890    24.6490    21.0580 ca         1 B6O      -0.200000
     26 C25        -22.1800    23.9020    22.9450 ca         1 B6O      -0.186000
     27 N26        -19.8040    24.2690    23.1860 nh         1 B6O      -0.698000
     28 C27        -18.5500    24.7210    22.6300 c3         1 B6O       0.222600
     29 C29        -31.7030    21.3990    24.7500 c          1 B6O       0.514200
     30 O30        -32.4050    21.1070    25.6910 o          1 B6O      -0.470100
     31 C31        -32.1940    21.4290    23.3430 ca         1 B6O      -0.126600
     32 C32        -33.5200    21.0950    23.1000 ca         1 B6O      -0.085000
     33 H131       -26.9360    21.0020    22.5490 ha         1 B6O       0.174000
     34 H211       -24.1560    24.2780    20.2020 ha         1 B6O       0.137000
     35 H221       -21.9690    24.9380    19.2460 ha         1 B6O       0.129000
     36 H283       -18.9000    23.9990    25.0330 h1         1 B6O       0.035867
     37 H281       -20.5430    24.6250    25.1380 h1         1 B6O       0.035867
     38 H282       -20.2610    22.9240    24.7490 h1         1 B6O       0.035867
     39 H011       -35.0580    20.8470    21.6310 ha         1 B6O       0.143000
     40 H021       -33.5930    21.4720    19.7380 ha         1 B6O       0.143000
     41 H031       -31.2430    22.0730    20.1440 ha         1 B6O       0.156000
     42 H191       -26.9320    24.5250    25.0300 ha         1 B6O       0.174000
     43 H231       -19.9580    24.9480    20.5980 ha         1 B6O       0.131000
     44 H251       -22.2700    23.5990    23.9790 ha         1 B6O       0.134000
     45 H271       -17.7760    24.6480    23.3880 h1         1 B6O       0.035867
     46 H272       -18.2340    24.1100    21.7800 h1         1 B6O       0.035867
     47 H273       -18.5930    25.7620    22.2950 h1         1 B6O       0.035867
     48 H321       -34.1630    20.8220    23.9260 ha         1 B6O       0.160000
@<TRIPOS>BOND
     1     1    19 ar  
     2     1    20 ar  
     3     1    33 1   
     4     2    22 ar  
     5     2    23 1   
     6     2    24 ar  
     7     3     4 ar  
     8     3    22 1   
     9     3    26 ar  
    10     4     5 ar  
    11     4    34 1   
    12     5    25 ar  
    13     5    35 1   
    14     6    25 ar  
    15     6    26 ar  
    16     6    27 1   
    17     7    27 1   
    18     7    36 1   
    19     7    37 1   
    20     7    38 1   
    21     8     9 ar  
    22     8    32 ar  
    23     8    39 1   
    24     9    10 ar  
    25     9    40 1   
    26    10    11 ar  
    27    10    41 1   
    28    11    12 1   
    29    11    31 ar  
    30    12    13 2   
    31    12    14 1   
    32    14    15 2   
    33    14    18 1   
    34    15    16 1   
    35    15    29 1   
    36    16    17 2   
    37    17    18 1   
    38    18    19 1   
    39    19    24 ar  
    40    20    21 1   
    41    20    22 ar  
    42    24    42 1   
    43    25    43 1   
    44    26    44 1   
    45    27    28 1   
    46    28    45 1   
    47    28    46 1   
    48    28    47 1   
    49    29    30 2   
    50    29    31 1   
    51    31    32 ar  
    52    32    48 1   
@<TRIPOS>SUBSTRUCTURE
     1 B6O         1 TEMP              0 ****  ****    0 ROOT
