@<TRIPOS>MOLECULE
B6P
   85    90     1     0     0
SMALL
bcc


@<TRIPOS>ATOM
      1 N1          25.5290    26.3980    20.7610 nb         1 B6P      -0.899000
      2 C2          25.0240    26.9610    21.8540 ca         1 B6P       0.640900
      3 N3          23.7730    26.9600    22.2810 nb         1 B6P      -0.752500
      4 C4          22.9800    26.2560    21.4740 ca         1 B6P       0.412300
      5 C5          23.3680    25.5770    20.3280 ca         1 B6P      -0.187200
      6 C6          24.7190    25.6990    19.9510 ca         1 B6P       0.755200
      7 N6          25.2100    25.1560    18.8370 nv         1 B6P      -0.940000
      8 N7          22.3000    24.9380    19.7570 nc         1 B6P      -0.524600
      9 C8          21.2940    25.2410    20.5180 cd         1 B6P       0.480700
     10 N9          21.6340    26.0400    21.5750 na         1 B6P      -0.249000
     11 PA          16.4470    27.9710    19.7270 p5         1 B6P       1.484800
     12 PB          16.7540    26.9210    16.9290 p5         1 B6P       1.557300
     13 PD          21.3780    26.6280    15.1640 p5         1 B6P       1.563800
     14 PE          23.0760    24.2070    15.4860 p5         1 B6P       1.557300
     15 PG          19.3770    25.4770    17.0410 p5         1 B6P       1.563800
     16 PZ          25.7500    25.1170    14.6300 p5         1 B6P       1.484800
     17 C11         20.7330    26.6710    22.5160 c5         1 B6P       0.252300
     18 C12         23.8340    29.5490    11.8130 c5         1 B6P       0.252300
     19 O1A         17.6140    28.9080    19.6970 o          1 B6P      -0.869250
     20 O1B         17.3940    28.2130    16.5410 o          1 B6P      -0.887000
     21 O1D         21.5320    27.9810    15.7980 o          1 B6P      -0.899000
     22 O1E         22.0760    23.3750    14.7600 o          1 B6P      -0.887000
     23 O1G         19.8450    26.4130    18.1080 o          1 B6P      -0.899000
     24 N1Y         21.9600    31.3340     7.4270 nb         1 B6P      -0.899000
     25 O1Z         25.8040    26.1600    15.7040 o          1 B6P      -0.869250
     26 C21         20.2010    28.0150    22.0060 c5         1 B6P       0.113100
     27 O21         21.0930    29.0380    22.3210 oh         1 B6P      -0.608800
     28 C22         23.4570    29.0370    13.1980 c5         1 B6P       0.113100
     29 O22         22.6430    29.9250    13.8860 oh         1 B6P      -0.608800
     30 O2A         15.0480    28.4940    19.7610 o          1 B6P      -0.869250
     31 O2B         15.4660    26.4840    16.3070 o          1 B6P      -0.887000
     32 O2D         21.5030    26.4730    13.6780 o          1 B6P      -0.899000
     33 O2E         23.7810    23.6730    16.6980 o          1 B6P      -0.887000
     34 O2G         19.6050    24.0040    17.1600 o          1 B6P      -0.899000
     35 C2Y         22.9730    31.7340     8.1910 ca         1 B6P       0.640900
     36 O2Z         26.6190    23.9040    14.6990 o          1 B6P      -0.869250
     37 C31         18.8290    28.0680    22.6680 c5         1 B6P       0.073100
     38 O31         19.0010    28.4460    24.0120 oh         1 B6P      -0.613300
     39 C32         24.8350    28.7500    13.7820 c5         1 B6P       0.073100
     40 O32         25.4370    29.9770    14.1260 oh         1 B6P      -0.613300
     41 O3A         16.5720    26.8230    18.5590 os         1 B6P      -0.738800
     42 O3B         17.7820    25.6560    16.7140 os         1 B6P      -0.728300
     43 O3D         22.4390    25.6520    15.9500 os         1 B6P      -0.728300
     44 O3E         24.1850    24.6740    14.3720 os         1 B6P      -0.738800
     45 O3G         19.9380    25.9860    15.5720 os         1 B6P      -0.723800
     46 N3Y         23.3950    31.2220     9.3340 nb         1 B6P      -0.752500
     47 C41         18.4080    26.6070    22.5370 c5         1 B6P       0.083100
     48 O41         19.6170    25.8510    22.6930 os         1 B6P      -0.448600
     49 C42         25.4990    28.1000    12.5700 c5         1 B6P       0.083100
     50 O42         24.9570    28.7980    11.4370 os         1 B6P      -0.448600
     51 C4Y         22.6610    30.1750     9.7050 ca         1 B6P       0.412300
     52 C51         17.7820    26.2430    21.1950 c3         1 B6P       0.191900
     53 O51         16.5790    26.9570    21.0200 os         1 B6P      -0.607200
     54 C52         25.2020    26.6080    12.4000 c3         1 B6P       0.191900
     55 O52         26.0530    25.7680    13.1500 os         1 B6P      -0.607200
     56 C5Y         21.5820    29.6430     9.0180 ca         1 B6P      -0.187200
     57 C6Y         21.2330    30.2780     7.8120 ca         1 B6P       0.755200
     58 N6Y         20.2230    29.8650     7.0450 nv         1 B6P      -0.940000
     59 N7Y         21.0620    28.5670     9.6880 nc         1 B6P      -0.524600
     60 C8Y         21.8060    28.4510    10.7480 cd         1 B6P       0.480700
     61 N9Y         22.7910    29.4030    10.8260 na         1 B6P      -0.249000
     62 H2          25.7360    27.5030    22.4690 h5         1 B6P      -0.018900
     63 HN6         26.1460    25.4040    18.5650 hn         1 B6P       0.456800
     64 HN6A        24.5880    24.8160    18.1040 hn         1 B6P       0.456800
     65 H8          20.2800    24.9150    20.3520 h5         1 B6P       0.137800
     66 H11         21.2860    26.8070    23.4520 h2         1 B6P       0.064200
     67 H21         20.0440    27.9410    20.9220 h1         1 B6P       0.152200
     68 HO21        20.8510    29.8210    21.8170 ho         1 B6P       0.461000
     69 HO22        22.0570    29.3690    14.4270 ho         1 B6P       0.461000
     70 H2Y         23.5200    32.5960     7.8220 h5         1 B6P      -0.018900
     71 H31         18.1490    28.7410    22.1370 h1         1 B6P       0.138700
     72 HO31        18.1370    28.4510    24.4350 ho         1 B6P       0.368500
     73 H32         24.7930    28.0680    14.6360 h1         1 B6P       0.138700
     74 HO32        26.3180    29.7960    14.4670 ho         1 B6P       0.368500
     75 H41         17.7240    26.3280    23.3450 h1         1 B6P       0.025200
     76 H42         26.5850    28.2460    12.5750 h1         1 B6P       0.025200
     77 H51         18.4880    26.4300    20.3820 h1         1 B6P       0.057950
     78 H51A        17.5710    25.1680    21.1850 h1         1 B6P       0.057950
     79 H52         24.1460    26.3990    12.5950 h1         1 B6P       0.057950
     80 H52A        25.3750    26.3630    11.3480 h1         1 B6P       0.057950
     81 HN6Y        19.9740    30.3750     6.2150 hn         1 B6P       0.456800
     82 HN6B        19.6280    29.1080     7.3350 hn         1 B6P       0.456800
     83 H8Y         21.6710    27.6920    11.5080 h5         1 B6P       0.137800
     84 H12         24.0740    30.6170    11.8470 h2         1 B6P       0.064200
     85 H22         22.9620    28.0670    13.0930 h1         1 B6P       0.152200
@<TRIPOS>BOND
     1     1     2 ar  
     2     1     6 ar  
     3     2     3 ar  
     4     2    62 1   
     5     3     4 ar  
     6     4     5 ar  
     7     4    10 1   
     8     5     6 ar  
     9     5     8 1   
    10     6     7 1   
    11     7    63 1   
    12     7    64 1   
    13     8     9 2   
    14     9    10 1   
    15     9    65 1   
    16    10    17 1   
    17    11    19 1   
    18    11    30 1   
    19    11    41 1   
    20    11    53 1   
    21    12    20 1   
    22    12    31 1   
    23    12    41 1   
    24    12    42 1   
    25    13    21 1   
    26    13    32 1   
    27    13    43 1   
    28    13    45 1   
    29    14    22 1   
    30    14    33 1   
    31    14    43 1   
    32    14    44 1   
    33    15    23 1   
    34    15    34 1   
    35    15    42 1   
    36    15    45 1   
    37    16    25 1   
    38    16    36 1   
    39    16    44 1   
    40    16    55 1   
    41    17    26 1   
    42    17    48 1   
    43    17    66 1   
    44    18    28 1   
    45    18    50 1   
    46    18    61 1   
    47    18    84 1   
    48    24    35 ar  
    49    24    57 ar  
    50    26    27 1   
    51    26    37 1   
    52    26    67 1   
    53    27    68 1   
    54    28    29 1   
    55    28    39 1   
    56    28    85 1   
    57    29    69 1   
    58    35    46 ar  
    59    35    70 1   
    60    37    38 1   
    61    37    47 1   
    62    37    71 1   
    63    38    72 1   
    64    39    40 1   
    65    39    49 1   
    66    39    73 1   
    67    40    74 1   
    68    46    51 ar  
    69    47    48 1   
    70    47    52 1   
    71    47    75 1   
    72    49    50 1   
    73    49    54 1   
    74    49    76 1   
    75    51    56 ar  
    76    51    61 1   
    77    52    53 1   
    78    52    77 1   
    79    52    78 1   
    80    54    55 1   
    81    54    79 1   
    82    54    80 1   
    83    56    57 ar  
    84    56    59 1   
    85    57    58 1   
    86    58    81 1   
    87    58    82 1   
    88    59    60 2   
    89    60    61 1   
    90    60    83 1   
@<TRIPOS>SUBSTRUCTURE
     1 B6P         1 TEMP              0 ****  ****    0 ROOT
