@<TRIPOS>MOLECULE
B6P
   85    90     1     0     0
SMALL
No Charge or Current Charge


@<TRIPOS>ATOM
      1 N1          25.6130    26.3180    21.1000 nb         1 B6P      -0.373000
      2 C2          25.0600    27.0510    22.0940 ca         1 B6P       0.114900
      3 N3          23.7570    27.0680    22.4570 nb         1 B6P      -0.226500
      4 C4          22.9350    26.2650    21.7500 ca         1 B6P       0.084000
      5 C5          23.3950    25.4750    20.7260 ca         1 B6P      -0.056600
      6 C6          24.7740    25.5280    20.4120 ca         1 B6P       0.426900
      7 N6          25.3600    24.8170    19.4150 nv         1 B6P      -1.050400
      8 N7          22.3830    24.7170    20.1520 nc         1 B6P      -0.524600
      9 C8          21.3010    25.1010    20.8600 cd         1 B6P       0.480700
     10 N9          21.5850    26.0490    21.8640 na         1 B6P      -0.278300
     11 PA          17.1570    28.4250    19.6130 p5         1 B6P       1.484800
     12 PB          17.6400    27.9780    17.0460 p5         1 B6P       1.557300
     13 PD          21.2390    25.9870    14.9500 p5         1 B6P       1.563800
     14 PE          23.3040    24.4330    15.7410 p5         1 B6P       1.557300
     15 PG          19.6380    26.1790    17.1090 p5         1 B6P       1.563800
     16 PZ          25.6000    25.0760    14.5200 p5         1 B6P       1.484800
     17 C11         20.6670    26.6200    22.8490 c5         1 B6P       0.304800
     18 C12         23.7470    29.2020    11.3720 c5         1 B6P       0.304800
     19 O1A         18.3530    29.2260    19.9980 o          1 B6P      -0.869250
     20 O1B         18.4330    29.2410    16.9790 o          1 B6P      -0.887000
     21 O1D         20.9670    27.4280    14.6590 o          1 B6P      -0.899000
     22 O1E         22.3860    23.2560    15.6660 o          1 B6P      -0.887000
     23 O1G         20.6050    27.1750    17.6540 o          1 B6P      -0.899000
     24 N1Y         20.7790    31.8190     7.8950 nb         1 B6P      -0.373000
     25 O1Z         25.7790    26.3700    15.2380 o          1 B6P      -0.869250
     26 C21         20.1970    28.1000    22.5940 c5         1 B6P       0.136300
     27 O21         20.8770    29.0730    23.4000 oh         1 B6P      -0.731000
     28 C22         22.9030    28.4500    12.4520 c5         1 B6P       0.136300
     29 O22         21.7720    29.1590    13.0030 oh         1 B6P      -0.731000
     30 O2A         15.9290    29.2520    19.4260 o          1 B6P      -0.869250
     31 O2B         16.3350    28.1570    16.3390 o          1 B6P      -0.887000
     32 O2D         21.2650    25.2900    13.6300 o          1 B6P      -0.899000
     33 O2E         24.1530    24.2870    16.9610 o          1 B6P      -0.887000
     34 O2G         19.2430    25.1990    18.1680 o          1 B6P      -0.899000
     35 C2Y         21.1010    32.1040     9.1790 ca         1 B6P       0.114900
     36 O2Z         26.5400    24.0120    14.9850 o          1 B6P      -0.869250
     37 C31         18.7240    28.0550    23.0860 c5         1 B6P       0.096300
     38 O31         18.6840    28.2380    24.5240 oh         1 B6P      -0.735500
     39 C32         24.0380    28.1900    13.4940 c5         1 B6P       0.096300
     40 O32         24.4740    29.3750    14.2000 oh         1 B6P      -0.735500
     41 O3A         17.3860    27.3730    18.4710 os         1 B6P      -0.738800
     42 O3B         18.3830    26.7690    16.3540 os         1 B6P      -0.728300
     43 O3D         22.5810    25.8330    15.7600 os         1 B6P      -0.728300
     44 O3E         24.1200    24.5660    14.3990 os         1 B6P      -0.738800
     45 O3G         20.1920    25.3190    15.9120 os         1 B6P      -0.723800
     46 N3Y         21.8800    31.3620    10.0020 nb         1 B6P      -0.226500
     47 C41         18.3100    26.6170    22.6380 c5         1 B6P       0.106300
     48 O41         19.4690    25.8090    22.9630 os         1 B6P      -0.495000
     49 C42         25.1430    27.6590    12.5210 c5         1 B6P       0.106300
     50 O42         25.0160    28.4910    11.3290 os         1 B6P      -0.495000
     51 C4Y         22.3790    30.2240     9.4780 ca         1 B6P       0.084000
     52 C51         17.9630    26.4450    21.1300 c3         1 B6P       0.215100
     53 O51         16.8840    27.3250    20.7600 os         1 B6P      -0.630400
     54 C52         25.0080    26.1520    12.1190 c3         1 B6P       0.215100
     55 O52         25.8260    25.2820    12.9320 os         1 B6P      -0.630400
     56 C5Y         22.1160    29.8450     8.1850 ca         1 B6P      -0.056600
     57 C6Y         21.2950    30.6840     7.4000 ca         1 B6P       0.426900
     58 N6Y         20.9650    30.4070     6.1110 nv         1 B6P      -1.050400
     59 N7Y         22.7280    28.6450     7.8460 nc         1 B6P      -0.524600
     60 C8Y         23.3720    28.3280     8.9880 cd         1 B6P       0.480700
     61 N9Y         23.1840    29.2590    10.0270 na         1 B6P      -0.278300
     62 H2          25.7320    27.6950    22.6570 h5         1 B6P      -0.018900
     63 HN6         26.2890    25.1160    19.1470 hn         1 B6P       0.512000
     64 HN6A        24.7650    24.5720    18.6050 hn         1 B6P       0.512000
     65 H8          20.2960    24.7190    20.7180 h5         1 B6P       0.137800
     66 H11         21.2030    26.5700    23.8050 h2         1 B6P       0.064200
     67 H21         20.2570    28.3410    21.5220 h1         1 B6P       0.152200
     68 HO21        20.2830    29.0920    24.2020 ho         1 B6P       0.560000
     69 HO22        21.3970    28.5270    13.7170 ho         1 B6P       0.560000
     70 H2Y         20.6910    33.0230     9.5920 h5         1 B6P      -0.018900
     71 H31         18.1110    28.8170    22.5800 h1         1 B6P       0.138700
     72 HO31        17.8080    27.9080    24.8360 ho         1 B6P       0.467500
     73 H32         23.7320    27.4120    14.2040 h1         1 B6P       0.138700
     74 HO32        25.1240    29.0650    14.8730 ho         1 B6P       0.467500
     75 H41         17.4540    26.2500    23.2190 h1         1 B6P       0.025200
     76 H42         26.1510    27.8140    12.9290 h1         1 B6P       0.025200
     77 H51         18.8630    26.6370    20.5310 h1         1 B6P       0.057950
     78 H51A        17.6720    25.4010    20.9550 h1         1 B6P       0.057950
     79 H52         23.9570    25.8410    12.1600 h1         1 B6P       0.057950
     80 H52A        25.3230    26.0530    11.0720 h1         1 B6P       0.057950
     81 HN6Y        20.1610    30.8860     5.7150 hn         1 B6P       0.512000
     82 HN6B        21.1420    29.4620     5.7780 hn         1 B6P       0.512000
     83 H8Y         23.9870    27.4470     9.1360 h5         1 B6P       0.137800
     84 H12         23.9220    30.2380    11.6860 h2         1 B6P       0.064200
     85 H22         22.5550    27.4970    12.0250 h1         1 B6P       0.152200
@<TRIPOS>BOND
     1     1     2 ar  
     2     1     6 ar  
     3     2     3 ar  
     4     2    62 1   
     5     3     4 ar  
     6     4     5 ar  
     7     4    10 1   
     8     5     6 ar  
     9     5     8 1   
    10     6     7 1   
    11     7    63 1   
    12     7    64 1   
    13     8     9 2   
    14     9    10 1   
    15     9    65 1   
    16    10    17 1   
    17    11    19 1   
    18    11    30 1   
    19    11    41 1   
    20    11    53 1   
    21    12    20 1   
    22    12    31 1   
    23    12    41 1   
    24    12    42 1   
    25    13    21 1   
    26    13    32 1   
    27    13    43 1   
    28    13    45 1   
    29    14    22 1   
    30    14    33 1   
    31    14    43 1   
    32    14    44 1   
    33    15    23 1   
    34    15    34 1   
    35    15    42 1   
    36    15    45 1   
    37    16    25 1   
    38    16    36 1   
    39    16    44 1   
    40    16    55 1   
    41    17    26 1   
    42    17    48 1   
    43    17    66 1   
    44    18    28 1   
    45    18    50 1   
    46    18    61 1   
    47    18    84 1   
    48    24    35 ar  
    49    24    57 ar  
    50    26    27 1   
    51    26    37 1   
    52    26    67 1   
    53    27    68 1   
    54    28    29 1   
    55    28    39 1   
    56    28    85 1   
    57    29    69 1   
    58    35    46 ar  
    59    35    70 1   
    60    37    38 1   
    61    37    47 1   
    62    37    71 1   
    63    38    72 1   
    64    39    40 1   
    65    39    49 1   
    66    39    73 1   
    67    40    74 1   
    68    46    51 ar  
    69    47    48 1   
    70    47    52 1   
    71    47    75 1   
    72    49    50 1   
    73    49    54 1   
    74    49    76 1   
    75    51    56 ar  
    76    51    61 1   
    77    52    53 1   
    78    52    77 1   
    79    52    78 1   
    80    54    55 1   
    81    54    79 1   
    82    54    80 1   
    83    56    57 ar  
    84    56    59 1   
    85    57    58 1   
    86    58    81 1   
    87    58    82 1   
    88    59    60 2   
    89    60    61 1   
    90    60    83 1   
@<TRIPOS>SUBSTRUCTURE
     1 B6P         1 TEMP              0 ****  ****    0 ROOT
