@<TRIPOS>MOLECULE
B6Q
   61    64     1     0     0
SMALL
bcc


@<TRIPOS>ATOM
      1 CAD          7.6280    -0.7790    -0.9260 c6         1 B6Q       0.195800
      2 CAC          9.0890    -0.5110    -0.6110 c6         1 B6Q       0.157300
      3 NAB          9.4500     0.8530    -0.9300 n3         1 B6Q      -0.713600
      4 CAA         10.8560     1.1000    -0.7100 c3         1 B6Q       0.152100
      5 CAG          8.6180     1.7650    -0.1740 c6         1 B6Q       0.157300
      6 CAF          7.1520     1.5380    -0.4850 c6         1 B6Q       0.195800
      7 NAE          6.7750     0.1550    -0.2200 nh         1 B6Q      -0.644000
      8 CAH          5.4100    -0.1290    -0.1630 ca         1 B6Q       0.138600
      9 CBG          4.8360    -1.2260    -0.8140 ca         1 B6Q      -0.155500
     10 CBF          3.4830    -1.5000    -0.7030 ca         1 B6Q      -0.129000
     11 CAI          4.5470     0.6740     0.5950 ca         1 B6Q      -0.155500
     12 CAJ          3.1930     0.4140     0.6990 ca         1 B6Q      -0.129000
     13 CAK          2.6380    -0.6860     0.0440 ca         1 B6Q       0.120600
     14 NAL          1.2800    -1.0400     0.0790 nu         1 B6Q      -0.717300
     15 CAM          0.2500    -0.4190     0.6660 cc         1 B6Q       0.774300
     16 SAQ         -1.3490    -1.0830     0.4800 ss         1 B6Q      -0.236300
     17 NAN          0.3350     0.6660     1.3860 nd         1 B6Q      -0.810000
     18 CAO         -0.8830     1.0520     1.8360 cd         1 B6Q       0.761200
     19 NBE         -0.9720     2.1540     2.5750 nv         1 B6Q      -0.938500
     20 CAP         -1.9640     0.2320     1.4730 cc         1 B6Q      -0.388000
     21 CAR         -3.3320     0.4900     1.7480 c          1 B6Q       0.645300
     22 OAS         -3.7030     1.5040     2.3500 o          1 B6Q      -0.591100
     23 CAT         -4.3590    -0.4800     1.2560 ca         1 B6Q      -0.119600
     24 CAY         -5.4690     0.0350     0.5900 ca         1 B6Q      -0.111000
     25 CAU         -4.2440    -1.8440     1.4950 ca         1 B6Q      -0.133000
     26 CAV         -5.2470    -2.6950     1.0510 ca         1 B6Q      -0.108000
     27 CAW         -6.3380    -2.1970     0.3650 ca         1 B6Q      -0.178000
     28 CAX         -6.4620    -0.8240     0.1230 ca         1 B6Q       0.068600
     29 NAZ         -7.5950    -0.4090    -0.5770 ns         1 B6Q      -0.478100
     30 CBA         -7.9640     0.8410    -0.9710 c          1 B6Q       0.671100
     31 OBB         -7.3190     1.8440    -0.7310 o          1 B6Q      -0.568100
     32 CBC         -9.2620     0.8620    -1.7510 c3         1 B6Q      -0.159400
     33 CBD         -9.7290     2.2600    -2.1110 c3         1 B6Q      -0.076100
     34 H1           7.4740    -0.7320    -2.0150 h1         1 B6Q       0.043950
     35 H2           7.3980    -1.7960    -0.6060 h1         1 B6Q       0.043950
     36 H3           9.2770    -0.7460     0.4510 h1         1 B6Q       0.040200
     37 H4           9.7000    -1.1950    -1.2040 h1         1 B6Q       0.040200
     38 H6          11.4560     0.4350    -1.3340 h1         1 B6Q       0.032033
     39 H7          11.1020     2.1270    -0.9830 h1         1 B6Q       0.032033
     40 H8          11.1660     0.9490     0.3370 h1         1 B6Q       0.032033
     41 H9           8.7790     1.6600     0.9130 h1         1 B6Q       0.040200
     42 H10          8.8750     2.7930    -0.4410 h1         1 B6Q       0.040200
     43 H11          6.5680     2.2160     0.1330 h1         1 B6Q       0.043950
     44 H12          6.9560     1.8000    -1.5350 h1         1 B6Q       0.043950
     45 H13          5.4310    -1.8850    -1.4310 ha         1 B6Q       0.134500
     46 H14          3.0820    -2.3620    -1.2250 ha         1 B6Q       0.147000
     47 H15          4.9360     1.5230     1.1410 ha         1 B6Q       0.134500
     48 H16          2.5780     1.0650     1.2980 ha         1 B6Q       0.147000
     49 H17          1.0560    -1.8750    -0.4410 hn         1 B6Q       0.449800
     50 H18         -0.1530     2.7130     2.7400 hn         1 B6Q       0.461300
     51 H19         -1.8760     2.4990     2.8500 hn         1 B6Q       0.461300
     52 H20         -5.5430     1.0980     0.4280 ha         1 B6Q       0.179000
     53 H21         -3.4040    -2.2450     2.0490 ha         1 B6Q       0.142000
     54 H22         -5.1790    -3.7580     1.2430 ha         1 B6Q       0.131000
     55 H23         -7.1080    -2.8760     0.0160 ha         1 B6Q       0.124000
     56 H24         -8.2210    -1.1540    -0.8440 hn         1 B6Q       0.312500
     57 H25         -9.1260     0.2620    -2.6560 hc         1 B6Q       0.055700
     58 H26        -10.0280     0.3430    -1.1690 hc         1 B6Q       0.055700
     59 H27        -10.6590     2.2040    -2.6770 hc         1 B6Q       0.044367
     60 H28         -9.9190     2.8630    -1.2240 hc         1 B6Q       0.044367
     61 H29         -8.9990     2.7850    -2.7260 hc         1 B6Q       0.044367
@<TRIPOS>BOND
     1     1     2 1   
     2     1     7 1   
     3     1    34 1   
     4     1    35 1   
     5     2     3 1   
     6     2    36 1   
     7     2    37 1   
     8     3     4 1   
     9     3     5 1   
    10     4    38 1   
    11     4    39 1   
    12     4    40 1   
    13     5     6 1   
    14     5    41 1   
    15     5    42 1   
    16     6     7 1   
    17     6    43 1   
    18     6    44 1   
    19     7     8 1   
    20     8     9 ar  
    21     8    11 ar  
    22     9    10 ar  
    23     9    45 1   
    24    10    13 ar  
    25    10    46 1   
    26    11    12 ar  
    27    11    47 1   
    28    12    13 ar  
    29    12    48 1   
    30    13    14 1   
    31    14    15 1   
    32    14    49 1   
    33    15    16 1   
    34    15    17 2   
    35    16    20 1   
    36    17    18 1   
    37    18    19 1   
    38    18    20 2   
    39    19    50 1   
    40    19    51 1   
    41    20    21 1   
    42    21    22 2   
    43    21    23 1   
    44    23    24 ar  
    45    23    25 ar  
    46    24    28 ar  
    47    24    52 1   
    48    25    26 ar  
    49    25    53 1   
    50    26    27 ar  
    51    26    54 1   
    52    27    28 ar  
    53    27    55 1   
    54    28    29 1   
    55    29    30 1   
    56    29    56 1   
    57    30    31 2   
    58    30    32 1   
    59    32    33 1   
    60    32    57 1   
    61    32    58 1   
    62    33    59 1   
    63    33    60 1   
    64    33    61 1   
@<TRIPOS>SUBSTRUCTURE
     1 B6Q         1 TEMP              0 ****  ****    0 ROOT
