@<TRIPOS>MOLECULE
B6Q
   61    64     1     0     0
SMALL
No Charge or Current Charge


@<TRIPOS>ATOM
      1 CAD          7.9750    -0.9020    -0.7320 c6         1 B6Q       0.195800
      2 CAC          9.3460    -0.8690     0.0200 c6         1 B6Q       0.157300
      3 NAB          9.8780     0.5160     0.1980 n3         1 B6Q      -0.713600
      4 CAA         11.1950     0.5400     0.8700 c3         1 B6Q       0.152100
      5 CAG          8.8600     1.3630     0.8920 c6         1 B6Q       0.157300
      6 CAF          7.4790     1.3770     0.1590 c6         1 B6Q       0.195800
      7 NAE          6.9520    -0.0010    -0.1070 nh         1 B6Q      -0.782400
      8 CAH          5.5660    -0.2000    -0.3210 ca         1 B6Q       0.277000
      9 CBG          5.0840    -0.8590    -1.4700 ca         1 B6Q      -0.137500
     10 CBF          3.7020    -1.0490    -1.6620 ca         1 B6Q      -0.111000
     11 CAI          4.6360     0.2550     0.6330 ca         1 B6Q      -0.137500
     12 CAJ          3.2550     0.0660     0.4410 ca         1 B6Q      -0.111000
     13 CAK          2.7770    -0.5780    -0.7150 ca         1 B6Q       0.259000
     14 NAL          1.4150    -0.8000    -0.9250 nu         1 B6Q      -0.910900
     15 CAM          0.2990    -0.0530    -0.6920 cc         1 B6Q       0.774300
     16 SAQ         -1.3100    -0.6000    -1.1030 ss         1 B6Q      -0.091400
     17 NAN          0.4090     1.1490    -0.1780 nd         1 B6Q      -0.810000
     18 CAO         -0.8320     1.6750    -0.0710 cd         1 B6Q       0.695900
     19 NBE         -0.8550     2.8590     0.5020 nv         1 B6Q      -1.048900
     20 CAP         -1.8770     0.9560    -0.5540 cc         1 B6Q      -0.467600
     21 CAR         -3.2800     1.3390    -0.3360 c          1 B6Q       0.645300
     22 OAS         -3.6280     2.5140    -0.3870 o          1 B6Q      -0.591100
     23 CAT         -4.2480     0.2710     0.1330 ca         1 B6Q      -0.119600
     24 CAY         -5.6200     0.3990    -0.1830 ca         1 B6Q      -0.093000
     25 CAU         -3.8310    -0.8240     0.9230 ca         1 B6Q      -0.115000
     26 CAV         -4.7600    -1.7820     1.3570 ca         1 B6Q      -0.090000
     27 CAW         -6.1150    -1.6550     1.0170 ca         1 B6Q      -0.160000
     28 CAX         -6.5600    -0.5670     0.2460 ca         1 B6Q      -0.024000
     29 NAZ         -7.9500    -0.4980    -0.0470 ns         1 B6Q      -0.152000
     30 CBA         -8.6970     0.3550    -0.8500 c          1 B6Q       0.604100
     31 OBB         -8.2210     1.2540    -1.5340 o          1 B6Q      -0.568100
     32 CBC        -10.2030     0.0570    -0.8580 c3         1 B6Q      -0.159400
     33 CBD        -11.0030     1.1220    -0.0740 c3         1 B6Q      -0.076100
     34 H1           8.1410    -0.6040    -1.7770 h1         1 B6Q       0.043950
     35 H2           7.6130    -1.9410    -0.7390 h1         1 B6Q       0.043950
     36 H3           9.2140    -1.3490     1.0020 h1         1 B6Q       0.040200
     37 H4          10.0650    -1.4840    -0.5400 h1         1 B6Q       0.040200
     38 H6          11.9280    -0.0540     0.3070 h1         1 B6Q       0.032033
     39 H7          11.5750     1.5680     0.9410 h1         1 B6Q       0.032033
     40 H8          11.1250     0.1280     1.8860 h1         1 B6Q       0.032033
     41 H9           8.7040     0.9960     1.9180 h1         1 B6Q       0.040200
     42 H10          9.2200     2.3990     0.9760 h1         1 B6Q       0.040200
     43 H11          6.7720     1.9560     0.7690 h1         1 B6Q       0.043950
     44 H12          7.5940     1.9140    -0.7940 h1         1 B6Q       0.043950
     45 H13          5.7740    -1.2190    -2.2280 ha         1 B6Q       0.116500
     46 H14          3.3530    -1.5560    -2.5580 ha         1 B6Q       0.129000
     47 H15          4.9850     0.7450     1.5380 ha         1 B6Q       0.116500
     48 H16          2.5600     0.4100     1.2000 ha         1 B6Q       0.129000
     49 H17          1.1980    -1.5750    -1.5450 hn         1 B6Q       0.505000
     50 H18          0.0350     3.3380     0.4940 hn         1 B6Q       0.516500
     51 H19         -1.6710     3.4250     0.2950 hn         1 B6Q       0.516500
     52 H20         -5.9350     1.2580    -0.7670 ha         1 B6Q       0.161000
     53 H21         -2.7930    -0.9260     1.2290 ha         1 B6Q       0.124000
     54 H22         -4.4300    -2.6210     1.9660 ha         1 B6Q       0.113000
     55 H23         -6.8240    -2.4050     1.3610 ha         1 B6Q       0.106000
     56 H24         -8.5000    -1.2030     0.4260 hn         1 B6Q       0.146000
     57 H25        -10.5580     0.0580    -1.8960 hc         1 B6Q       0.055700
     58 H26        -10.3980    -0.9220    -0.4020 hc         1 B6Q       0.055700
     59 H27        -12.0740     0.8890    -0.0950 hc         1 B6Q       0.044367
     60 H28        -10.6800     1.1570     0.9740 hc         1 B6Q       0.044367
     61 H29        -10.8610     2.1170    -0.5130 hc         1 B6Q       0.044367
@<TRIPOS>BOND
     1     1     2 1   
     2     1     7 1   
     3     1    34 1   
     4     1    35 1   
     5     2     3 1   
     6     2    36 1   
     7     2    37 1   
     8     3     4 1   
     9     3     5 1   
    10     4    38 1   
    11     4    39 1   
    12     4    40 1   
    13     5     6 1   
    14     5    41 1   
    15     5    42 1   
    16     6     7 1   
    17     6    43 1   
    18     6    44 1   
    19     7     8 1   
    20     8     9 ar  
    21     8    11 ar  
    22     9    10 ar  
    23     9    45 1   
    24    10    13 ar  
    25    10    46 1   
    26    11    12 ar  
    27    11    47 1   
    28    12    13 ar  
    29    12    48 1   
    30    13    14 1   
    31    14    15 1   
    32    14    49 1   
    33    15    16 1   
    34    15    17 2   
    35    16    20 1   
    36    17    18 1   
    37    18    19 1   
    38    18    20 2   
    39    19    50 1   
    40    19    51 1   
    41    20    21 1   
    42    21    22 2   
    43    21    23 1   
    44    23    24 ar  
    45    23    25 ar  
    46    24    28 ar  
    47    24    52 1   
    48    25    26 ar  
    49    25    53 1   
    50    26    27 ar  
    51    26    54 1   
    52    27    28 ar  
    53    27    55 1   
    54    28    29 1   
    55    29    30 1   
    56    29    56 1   
    57    30    31 2   
    58    30    32 1   
    59    32    33 1   
    60    32    57 1   
    61    32    58 1   
    62    33    59 1   
    63    33    60 1   
    64    33    61 1   
@<TRIPOS>SUBSTRUCTURE
     1 B6Q         1 TEMP              0 ****  ****    0 ROOT
