@<TRIPOS>MOLECULE
B6R
   44    48     1     0     0
SMALL
abcg2


@<TRIPOS>ATOM
      1 C13        -34.0800   -11.1060     4.0380 ca         1 B6R      -0.148000
      2 C15        -32.8690    -9.6510     2.5020 cp         1 B6R      -0.106000
      3 C17        -32.4470   -12.0530     2.5190 ca         1 B6R      -0.148000
      4 C20        -32.9190    -8.0020     0.6360 ca         1 B6R      -0.120000
      5 C21        -32.6500    -6.7360     0.1470 ca         1 B6R      -0.074000
      6 C22        -32.0540    -5.7670     0.9450 ca         1 B6R      -0.185000
      7 C24        -31.9980    -7.3470     2.7650 ca         1 B6R      -0.118000
      8 C26        -30.8150    -3.9190     2.6600 c3         1 B6R       0.148900
      9 C28        -35.1820   -18.5870     2.6360 ca         1 B6R      -0.067000
     10 C1         -34.7530   -16.3410     1.8600 ca         1 B6R      -0.137600
     11 C2         -34.8130   -17.2760     2.9110 ca         1 B6R      -0.126600
     12 C3         -34.4940   -16.9110     4.3200 c          1 B6R       0.514200
     13 O4         -34.5510   -17.6970     5.2370 o          1 B6R      -0.469100
     14 C5         -34.1010   -15.5140     4.5020 cc         1 B6R       0.160500
     15 C6         -34.0170   -14.6190     3.4700 cd         1 B6R      -0.224600
     16 C7         -34.3690   -14.9210     2.0780 c          1 B6R       0.625300
     17 O8         -34.3580   -14.0890     1.2020 o          1 B6R      -0.491100
     18 N9         -33.6460   -13.4730     4.0670 na         1 B6R       0.249000
     19 N10        -33.5130   -13.6640     5.3790 nd         1 B6R      -0.167800
     20 N11        -33.7860   -14.8860     5.6500 nc         1 B6R      -0.294000
     21 C12        -33.3920   -12.1900     3.5200 ca         1 B6R       0.045800
     22 C14        -33.7950    -9.8610     3.5140 ca         1 B6R       0.220500
     23 C16        -32.2170   -10.7840     2.0310 ca         1 B6R       0.220500
     24 F18        -31.3020   -10.6300     1.0730 f          1 B6R      -0.154500
     25 C19        -32.5910    -8.3050     1.9570 cp         1 B6R      -0.011000
     26 C23        -31.7240    -6.0740     2.2630 ca         1 B6R       0.141100
     27 O25        -31.1420    -5.2160     3.1200 os         1 B6R      -0.340100
     28 F27        -34.4520    -8.8060     3.9970 f          1 B6R      -0.154500
     29 C29        -35.4880   -18.9760     1.3400 ca         1 B6R      -0.089000
     30 C30        -35.4270   -18.0540     0.3060 ca         1 B6R      -0.098000
     31 C31        -35.0620   -16.7420     0.5660 ca         1 B6R      -0.062000
     32 H131       -34.8240   -11.2220     4.8140 ha         1 B6R       0.157000
     33 H171       -31.8860   -12.8970     2.1410 ha         1 B6R       0.157000
     34 H201       -33.3930    -8.7430     0.0060 ha         1 B6R       0.122000
     35 H211       -32.9070    -6.4900    -0.8750 ha         1 B6R       0.115000
     36 H221       -31.8570    -4.7900     0.5260 ha         1 B6R       0.119000
     37 H241       -31.7260    -7.5810     3.7870 ha         1 B6R       0.133000
     38 H262       -30.3400    -3.4060     3.4930 h1         1 B6R       0.042033
     39 H263       -30.1170    -3.9500     1.8190 h1         1 B6R       0.042033
     40 H261       -31.7020    -3.3560     2.3610 h1         1 B6R       0.042033
     41 H281       -35.2300   -19.3090     3.4390 ha         1 B6R       0.142000
     42 H291       -35.7720   -19.9990     1.1390 ha         1 B6R       0.125000
     43 H301       -35.6630   -18.3550    -0.7060 ha         1 B6R       0.125000
     44 H311       -35.0150   -16.0260    -0.2430 ha         1 B6R       0.138000
@<TRIPOS>BOND
     1     1    21 ar  
     2     1    22 ar  
     3     1    32 1   
     4     2    22 ar  
     5     2    23 ar  
     6     2    25 1   
     7     3    21 ar  
     8     3    23 ar  
     9     3    33 1   
    10     4     5 ar  
    11     4    25 ar  
    12     4    34 1   
    13     5     6 ar  
    14     5    35 1   
    15     6    26 ar  
    16     6    36 1   
    17     7    25 ar  
    18     7    26 ar  
    19     7    37 1   
    20     8    27 1   
    21     8    38 1   
    22     8    39 1   
    23     8    40 1   
    24     9    11 ar  
    25     9    29 ar  
    26     9    41 1   
    27    10    11 ar  
    28    10    16 1   
    29    10    31 ar  
    30    11    12 1   
    31    12    13 2   
    32    12    14 1   
    33    14    15 2   
    34    14    20 1   
    35    15    16 1   
    36    15    18 1   
    37    16    17 2   
    38    18    19 1   
    39    18    21 1   
    40    19    20 2   
    41    22    28 1   
    42    23    24 1   
    43    26    27 1   
    44    29    30 ar  
    45    29    42 1   
    46    30    31 ar  
    47    30    43 1   
    48    31    44 1   
@<TRIPOS>SUBSTRUCTURE
     1 B6R         1 TEMP              0 ****  ****    0 ROOT
