@<TRIPOS>MOLECULE
B6R
   44    48     1     0     0
SMALL
No Charge or Current Charge


@<TRIPOS>ATOM
      1 C13        -33.8010   -11.4230     3.9620 ca         1 B6R      -0.148000
      2 C15        -32.4460    -9.8940     2.5910 cp         1 B6R      -0.106000
      3 C17        -31.7050   -12.2010     3.0170 ca         1 B6R      -0.148000
      4 C20        -31.9350    -8.4330     0.5840 ca         1 B6R      -0.120000
      5 C21        -31.7350    -7.1750    -0.0070 ca         1 B6R      -0.074000
      6 C22        -31.8280    -6.0080     0.7700 ca         1 B6R      -0.185000
      7 C24        -32.3220    -7.3660     2.7280 ca         1 B6R      -0.118000
      8 C26        -32.0390    -3.6560     2.4660 c3         1 B6R       0.148900
      9 C28        -35.6220   -18.3180     2.4340 ca         1 B6R      -0.067000
     10 C1         -34.9920   -16.0060     1.9320 ca         1 B6R      -0.137600
     11 C2         -35.0000   -17.1120     2.8320 ca         1 B6R      -0.126600
     12 C3         -34.3570   -17.0210     4.2050 c          1 B6R       0.514200
     13 O4         -34.3620   -17.9710     4.9840 o          1 B6R      -0.469100
     14 C5         -33.7300   -15.7080     4.5240 cc         1 B6R       0.160500
     15 C6         -33.7320   -14.6650     3.6520 cd         1 B6R      -0.224600
     16 C7         -34.3380   -14.6960     2.3130 c          1 B6R       0.625300
     17 O8         -34.3210   -13.7350     1.5540 o          1 B6R      -0.491100
     18 N9         -33.0620   -13.7020     4.3610 na         1 B6R       0.249000
     19 N10        -32.6700   -14.1260     5.5980 nd         1 B6R      -0.167800
     20 N11        -33.0860   -15.3700     5.6950 nc         1 B6R      -0.294000
     21 C12        -32.8570   -12.4500     3.7840 ca         1 B6R       0.045800
     22 C14        -33.5980   -10.1660     3.3730 ca         1 B6R       0.220500
     23 C16        -31.5050   -10.9430     2.4280 ca         1 B6R       0.220500
     24 F18        -30.3750   -10.7430     1.7140 f          1 B6R      -0.154500
     25 C19        -32.2330    -8.5530     1.9630 cp         1 B6R      -0.011000
     26 C23        -32.1230    -6.1030     2.1470 ca         1 B6R       0.141100
     27 O25        -32.2250    -4.9930     2.9630 os         1 B6R      -0.340100
     28 F27        -34.5450    -9.2160     3.5500 f          1 B6R      -0.154500
     29 C29        -36.2250   -18.4330     1.1720 ca         1 B6R      -0.089000
     30 C30        -36.2160   -17.3440     0.2880 ca         1 B6R      -0.098000
     31 C31        -35.6040   -16.1390     0.6640 ca         1 B6R      -0.062000
     32 H131       -34.6980   -11.6000     4.5500 ha         1 B6R       0.157000
     33 H171       -30.9630   -12.9820     2.8750 ha         1 B6R       0.157000
     34 H201       -31.8680    -9.3260    -0.0340 ha         1 B6R       0.122000
     35 H211       -31.5100    -7.1050    -1.0690 ha         1 B6R       0.115000
     36 H221       -31.6690    -5.0480     0.2890 ha         1 B6R       0.119000
     37 H241       -32.5410    -7.4260     3.7910 ha         1 B6R       0.133000
     38 H262       -32.1640    -2.9280     3.2770 h1         1 B6R       0.042033
     39 H263       -31.0310    -3.5310     2.0500 h1         1 B6R       0.042033
     40 H261       -32.7750    -3.4240     1.6850 h1         1 B6R       0.042033
     41 H281       -35.6410   -19.1750     3.1050 ha         1 B6R       0.142000
     42 H291       -36.7000   -19.3670     0.8790 ha         1 B6R       0.125000
     43 H301       -36.6840   -17.4340    -0.6900 ha         1 B6R       0.125000
     44 H311       -35.6070   -15.3060    -0.0370 ha         1 B6R       0.138000
@<TRIPOS>BOND
     1     1    21 ar  
     2     1    22 ar  
     3     1    32 1   
     4     2    22 ar  
     5     2    23 ar  
     6     2    25 1   
     7     3    21 ar  
     8     3    23 ar  
     9     3    33 1   
    10     4     5 ar  
    11     4    25 ar  
    12     4    34 1   
    13     5     6 ar  
    14     5    35 1   
    15     6    26 ar  
    16     6    36 1   
    17     7    25 ar  
    18     7    26 ar  
    19     7    37 1   
    20     8    27 1   
    21     8    38 1   
    22     8    39 1   
    23     8    40 1   
    24     9    11 ar  
    25     9    29 ar  
    26     9    41 1   
    27    10    11 ar  
    28    10    16 1   
    29    10    31 ar  
    30    11    12 1   
    31    12    13 2   
    32    12    14 1   
    33    14    15 2   
    34    14    20 1   
    35    15    16 1   
    36    15    18 1   
    37    16    17 2   
    38    18    19 1   
    39    18    21 1   
    40    19    20 2   
    41    22    28 1   
    42    23    24 1   
    43    26    27 1   
    44    29    30 ar  
    45    29    42 1   
    46    30    31 ar  
    47    30    43 1   
    48    31    44 1   
@<TRIPOS>SUBSTRUCTURE
     1 B6R         1 TEMP              0 ****  ****    0 ROOT
