@<TRIPOS>MOLECULE
B6S
   17    18     1     0     0
SMALL
abcg2


@<TRIPOS>ATOM
      1 C1          -3.8630    -0.1380    -0.0380 cc         1 B6S       0.366100
      2 N1          -3.2090    -1.2380     0.0720 nd         1 B6S      -0.535100
      3 S1          -2.9230     1.3120    -0.1860 ss         1 B6S      -0.029200
      4 C2          -1.8550    -1.0010     0.0470 ca         1 B6S       0.088400
      5 C3          -1.4920     0.3470    -0.0870 ca         1 B6S      -0.189000
      6 C4          -0.1610     0.7510    -0.1280 ca         1 B6S       0.006000
      7 C5           0.8060    -0.2280    -0.0320 ca         1 B6S      -0.207500
      8 C6           0.4630    -1.5820     0.1010 ca         1 B6S      -0.020000
      9 C7          -0.8570    -1.9740     0.1420 ca         1 B6S      -0.097000
     10 S8           2.5450     0.2070    -0.0450 s6         1 B6S       1.260100
     11 O9           3.1330    -0.6100    -1.1180 o          1 B6S      -0.689867
     12 O10          2.5960     1.6540    -0.3110 o          1 B6S      -0.689867
     13 H1          -4.9430    -0.0800    -0.0420 h5         1 B6S       0.038800
     14 H4           0.1050     1.7940    -0.2340 ha         1 B6S       0.147000
     15 H6           1.2390    -2.3330     0.1700 ha         1 B6S       0.129000
     16 H7          -1.1260    -3.0170     0.2450 ha         1 B6S       0.112000
     17 OXT          3.0280    -0.1620     1.2960 o          1 B6S      -0.689867
@<TRIPOS>BOND
     1     1     2 2   
     2     1     3 1   
     3     1    13 1   
     4     2     4 1   
     5     3     5 1   
     6     4     5 ar  
     7     4     9 ar  
     8     5     6 ar  
     9     6     7 ar  
    10     6    14 1   
    11     7     8 ar  
    12     7    10 1   
    13     8     9 ar  
    14     8    15 1   
    15     9    16 1   
    16    10    11 1   
    17    10    12 1   
    18    10    17 1   
@<TRIPOS>SUBSTRUCTURE
     1 B6S         1 TEMP              0 ****  ****    0 ROOT
