@<TRIPOS>MOLECULE
B6S
   17    18     1     0     0
SMALL
No Charge or Current Charge


@<TRIPOS>ATOM
      1 C1          -3.8750    -0.1100     0.0050 cc         1 B6S       0.366100
      2 N1          -3.2330    -1.2870     0.0270 nd         1 B6S      -0.535100
      3 S1          -2.9100     1.3830    -0.0340 ss         1 B6S      -0.029200
      4 C2          -1.8710    -1.0130     0.0110 ca         1 B6S       0.088400
      5 C3          -1.5130     0.3190    -0.0220 ca         1 B6S      -0.189000
      6 C4          -0.1710     0.7310    -0.0400 ca         1 B6S       0.006000
      7 C5           0.8440    -0.2520    -0.0290 ca         1 B6S      -0.207500
      8 C6           0.4810    -1.6200     0.0110 ca         1 B6S      -0.020000
      9 C7          -0.8760    -2.0010     0.0280 ca         1 B6S      -0.097000
     10 S8           2.6270     0.2450    -0.0400 s6         1 B6S       1.260100
     11 O9           3.2520    -0.8600    -0.7830 o          1 B6S      -0.689867
     12 O10          2.5860     1.5480    -0.7210 o          1 B6S      -0.689867
     13 H1          -4.9540    -0.0170     0.0110 h5         1 B6S       0.038800
     14 H4           0.0760     1.7910    -0.0600 ha         1 B6S       0.147000
     15 H6           1.2500    -2.3900     0.0300 ha         1 B6S       0.129000
     16 H7          -1.1480    -3.0530     0.0580 ha         1 B6S       0.112000
     17 OXT          2.9200     0.2870     1.4010 o          1 B6S      -0.689867
@<TRIPOS>BOND
     1     1     2 2   
     2     1     3 1   
     3     1    13 1   
     4     2     4 1   
     5     3     5 1   
     6     4     5 ar  
     7     4     9 ar  
     8     5     6 ar  
     9     6     7 ar  
    10     6    14 1   
    11     7     8 ar  
    12     7    10 1   
    13     8     9 ar  
    14     8    15 1   
    15     9    16 1   
    16    10    11 1   
    17    10    12 1   
    18    10    17 1   
@<TRIPOS>SUBSTRUCTURE
     1 B6S         1 TEMP              0 ****  ****    0 ROOT
