@<TRIPOS>MOLECULE
B6T
   35    37     1     0     0
SMALL
No Charge or Current Charge


@<TRIPOS>ATOM
      1 N            3.3480    -1.1850    -0.2040 nc         1 B6T      -0.294600
      2 C           -2.5600    -2.0220     1.0710 c3         1 B6T      -0.084600
      3 O            1.2640    -3.1470    -0.5200 oh         1 B6T      -0.506100
      4 C1          -1.4980    -2.3180    -0.0180 c3         1 B6T       0.004600
      5 C10         -1.6890     0.8060     0.1550 ca         1 B6T      -0.148500
      6 C11         -2.0110     1.7660     1.1430 ca         1 B6T      -0.080500
      7 C12         -3.2190     2.4830     1.0820 ca         1 B6T      -0.112000
      8 C13         -4.1030     2.2820     0.0100 ca         1 B6T      -0.096000
      9 C14         -3.7650     1.3810    -1.0110 ca         1 B6T      -0.112000
     10 C15         -2.5590     0.6620    -0.9470 ca         1 B6T      -0.080500
     11 C2          -2.1200    -2.6760    -1.3880 c3         1 B6T      -0.084600
     12 C3          -0.2980    -1.3530    -0.0710 cc         1 B6T      -0.164300
     13 C4           0.9800    -1.8600    -0.2430 cd         1 B6T       0.215100
     14 C5           2.0500    -0.9480    -0.0920 cd         1 B6T      -0.182000
     15 C6           3.9590     0.0290     0.0500 cc         1 B6T       0.016600
     16 C7           3.0390     1.0200     0.3260 cd         1 B6T      -0.054800
     17 C8           3.2280     2.3930     0.6270 ch         1 B6T       0.325700
     18 C9          -0.3990     0.0950     0.1950 cc         1 B6T       0.422500
     19 N1           3.4140     3.5190     0.8740 n1         1 B6T      -0.429000
     20 N2           1.8440     0.3540     0.2440 na         1 B6T       0.299900
     21 N3           0.6180     0.9540     0.3630 nd         1 B6T      -0.485800
     22 H1          -2.0790    -1.7230     2.0100 hc         1 B6T       0.037867
     23 H2          -3.2580    -1.2350     0.7690 hc         1 B6T       0.037867
     24 H3          -3.1560    -2.9200     1.2700 hc         1 B6T       0.037867
     25 H4           2.2430    -3.1850    -0.5730 ho         1 B6T       0.505000
     26 H5          -1.0820    -3.2720     0.3320 hc         1 B6T       0.061700
     27 H6          -1.3360     1.9380     1.9790 ha         1 B6T       0.120000
     28 H7          -3.4660     3.1980     1.8630 ha         1 B6T       0.118000
     29 H8          -5.0350     2.8400    -0.0400 ha         1 B6T       0.116000
     30 H9          -4.4280     1.2540    -1.8650 ha         1 B6T       0.118000
     31 H10         -2.2750     0.0340    -1.7840 ha         1 B6T       0.120000
     32 H11         -2.9330    -1.9980    -1.6640 hc         1 B6T       0.037867
     33 H12         -1.3610    -2.6630    -2.1790 hc         1 B6T       0.037867
     34 H13         -2.5500    -3.6840    -1.3520 hc         1 B6T       0.037867
     35 H14          5.0420     0.1150     0.0150 h4         1 B6T       0.242000
@<TRIPOS>BOND
     1     1    14 2   
     2     1    15 1   
     3     2     4 1   
     4     2    22 1   
     5     2    23 1   
     6     2    24 1   
     7     3    13 1   
     8     3    25 1   
     9     4    11 1   
    10     4    12 1   
    11     4    26 1   
    12     5     6 ar  
    13     5    10 ar  
    14     5    18 1   
    15     6     7 ar  
    16     6    27 1   
    17     7     8 ar  
    18     7    28 1   
    19     8     9 ar  
    20     8    29 1   
    21     9    10 ar  
    22     9    30 1   
    23    10    31 1   
    24    11    32 1   
    25    11    33 1   
    26    11    34 1   
    27    12    13 2   
    28    12    18 1   
    29    13    14 1   
    30    14    20 1   
    31    15    16 2   
    32    15    35 1   
    33    16    17 1   
    34    16    20 1   
    35    17    19 3   
    36    18    21 2   
    37    20    21 1   
@<TRIPOS>SUBSTRUCTURE
     1 B6T         1 TEMP              0 ****  ****    0 ROOT
