@<TRIPOS>MOLECULE
B6T
   35    37     1     0     0
SMALL
abcg2


@<TRIPOS>ATOM
      1 N            3.3790    -1.2090    -0.0610 nc         1 B6T      -0.294600
      2 C           -2.6410    -1.9170     0.9590 c3         1 B6T      -0.084600
      3 O            1.2020    -3.1470    -0.1090 oh         1 B6T      -0.506100
      4 C1          -1.4640    -2.2890     0.0560 c3         1 B6T       0.004600
      5 C10         -1.6980     0.8180     0.1080 ca         1 B6T      -0.148500
      6 C11         -2.1290     1.4110     1.2900 ca         1 B6T      -0.080500
      7 C12         -3.3350     2.0960     1.3250 ca         1 B6T      -0.112000
      8 C13         -4.1080     2.2050     0.1770 ca         1 B6T      -0.096000
      9 C14         -3.6660     1.6380    -1.0110 ca         1 B6T      -0.112000
     10 C15         -2.4620     0.9480    -1.0460 ca         1 B6T      -0.080500
     11 C2          -1.9360    -2.6200    -1.3620 c3         1 B6T      -0.084600
     12 C3          -0.2970    -1.3200     0.0350 cc         1 B6T      -0.164300
     13 C4           0.9790    -1.8430    -0.0370 cd         1 B6T       0.215100
     14 C5           2.0770    -0.9580    -0.0220 cd         1 B6T      -0.182000
     15 C6           3.9700    -0.0080    -0.0060 cc         1 B6T       0.016600
     16 C7           3.0300     1.0060     0.0690 cd         1 B6T      -0.054800
     17 C8           3.1560     2.4010     0.1380 ch         1 B6T       0.325700
     18 C9          -0.3950     0.1040     0.0770 cc         1 B6T       0.422500
     19 N1           3.2740     3.5470     0.1940 n1         1 B6T      -0.429000
     20 N2           1.8150     0.3680     0.0570 na         1 B6T       0.299900
     21 N3           0.6200     0.9310     0.0980 nd         1 B6T      -0.485800
     22 H1          -2.3110    -1.5600     1.9350 hc         1 B6T       0.037867
     23 H2          -3.2910    -1.1610     0.5230 hc         1 B6T       0.037867
     24 H3          -3.2440    -2.8110     1.1210 hc         1 B6T       0.037867
     25 H4           2.1510    -3.3330    -0.1200 ho         1 B6T       0.505000
     26 H5          -1.0640    -3.2160     0.4740 hc         1 B6T       0.061700
     27 H6          -1.5290     1.3230     2.1860 ha         1 B6T       0.120000
     28 H7          -3.6700     2.5460     2.2510 ha         1 B6T       0.118000
     29 H8          -5.0490     2.7390     0.2040 ha         1 B6T       0.116000
     30 H9          -4.2540     1.7370    -1.9140 ha         1 B6T       0.118000
     31 H10         -2.1150     0.5220    -1.9790 ha         1 B6T       0.120000
     32 H11         -2.3730    -1.7500    -1.8500 hc         1 B6T       0.037867
     33 H12         -1.1170    -2.9780    -1.9860 hc         1 B6T       0.037867
     34 H13         -2.6980    -3.4000    -1.3290 hc         1 B6T       0.037867
     35 H14          5.0420     0.1130    -0.0190 h4         1 B6T       0.242000
@<TRIPOS>BOND
     1     1    14 2   
     2     1    15 1   
     3     2     4 1   
     4     2    22 1   
     5     2    23 1   
     6     2    24 1   
     7     3    13 1   
     8     3    25 1   
     9     4    11 1   
    10     4    12 1   
    11     4    26 1   
    12     5     6 ar  
    13     5    10 ar  
    14     5    18 1   
    15     6     7 ar  
    16     6    27 1   
    17     7     8 ar  
    18     7    28 1   
    19     8     9 ar  
    20     8    29 1   
    21     9    10 ar  
    22     9    30 1   
    23    10    31 1   
    24    11    32 1   
    25    11    33 1   
    26    11    34 1   
    27    12    13 2   
    28    12    18 1   
    29    13    14 1   
    30    14    20 1   
    31    15    16 2   
    32    15    35 1   
    33    16    17 1   
    34    16    20 1   
    35    17    19 3   
    36    18    21 2   
    37    20    21 1   
@<TRIPOS>SUBSTRUCTURE
     1 B6T         1 TEMP              0 ****  ****    0 ROOT
