@<TRIPOS>MOLECULE
B6U
   44    48     1     0     0
SMALL
No Charge or Current Charge


@<TRIPOS>ATOM
      1 C13        -26.1510    21.4000    23.1890 ca         1 B6U      -0.148000
      2 C15        -24.6150    23.2100    22.5500 cp         1 B6U      -0.103000
      3 C17        -26.5160    23.6410    24.0480 ca         1 B6U      -0.148000
      4 C20        -23.3150    23.5910    20.3940 ca         1 B6U       0.202000
      5 C21        -22.1780    24.0500    19.7120 ca         1 B6U      -0.157000
      6 C22        -21.1130    24.6260    20.4240 ca         1 B6U      -0.043000
      7 C24        -22.3290    24.2860    22.5040 ca         1 B6U      -0.054000
      8 C1         -31.1830    22.1820    22.4370 ca         1 B6U      -0.137600
      9 C2         -32.0600    21.6560    23.4310 ca         1 B6U      -0.126600
     10 C3         -31.5430    21.2170    24.7910 c          1 B6U       0.514200
     11 O4         -32.2940    20.7630    25.6500 o          1 B6U      -0.470100
     12 C5         -30.0760    21.3800    24.9930 cc         1 B6U       0.160500
     13 C6         -29.2570    21.8850    24.0330 cd         1 B6U      -0.221600
     14 C7         -29.7000    22.3240    22.7020 c          1 B6U       0.623300
     15 O8         -28.9320    22.7740    21.8610 o          1 B6U      -0.487100
     16 N9         -28.0350    21.8460    24.6540 na         1 B6U       0.247000
     17 N10        -28.0980    21.3470    25.9230 nd         1 B6U      -0.168800
     18 N11        -29.3650    21.0600    26.1290 nc         1 B6U      -0.294000
     19 C12        -26.9080    22.2930    23.9680 ca         1 B6U       0.048800
     20 C14        -25.0220    21.8530    22.4900 ca         1 B6U       0.226500
     21 C16        -25.3850    24.0910    23.3490 ca         1 B6U       0.226500
     22 F18        -25.0490    25.3980    23.4380 f          1 B6U      -0.154000
     23 C19        -23.4110    23.6960    21.8050 cp         1 B6U      -0.090000
     24 C23        -21.1850    24.7490    21.8250 ca         1 B6U      -0.104300
     25 C25        -20.0360    25.3800    22.5990 c3         1 B6U       0.212900
     26 O26        -19.0740    24.3810    22.9520 oh         1 B6U      -0.657000
     27 F28        -24.3070    20.9590    21.7700 f          1 B6U      -0.154000
     28 C29        -33.4390    21.5400    23.1410 ca         1 B6U      -0.067000
     29 C30        -33.9460    21.9370    21.8940 ca         1 B6U      -0.089000
     30 C31        -33.0830    22.4540    20.9180 ca         1 B6U      -0.098000
     31 C32        -31.7110    22.5760    21.1860 ca         1 B6U      -0.062000
     32 H131       -26.4350    20.3530    23.1230 ha         1 B6U       0.157500
     33 H171       -27.0890    24.3450    24.6460 ha         1 B6U       0.157500
     34 H211       -22.1260    23.9610    18.6300 ha         1 B6U       0.136000
     35 H221       -20.2330    24.9780    19.8890 ha         1 B6U       0.134000
     36 H241       -22.3800    24.3760    23.5870 ha         1 B6U       0.120000
     37 H251       -19.5670    26.1590    21.9820 h1         1 B6U       0.029200
     38 H252       -20.4290    25.8670    23.5010 h1         1 B6U       0.029200
     39 H261       -18.3590    24.8400    23.4470 ho         1 B6U       0.448000
     40 H291       -34.1270    21.1410    23.8850 ha         1 B6U       0.142000
     41 H301       -35.0090    21.8420    21.6850 ha         1 B6U       0.125000
     42 H311       -33.4770    22.7610    19.9510 ha         1 B6U       0.125000
     43 H321       -31.0580    22.9800    20.4150 ha         1 B6U       0.139000
     44 F27        -24.3340    23.0640    19.6770 f          1 B6U      -0.170000
@<TRIPOS>BOND
     1     1    19 ar  
     2     1    20 ar  
     3     1    32 1   
     4     2    20 ar  
     5     2    21 ar  
     6     2    23 1   
     7     3    19 ar  
     8     3    21 ar  
     9     3    33 1   
    10     4     5 ar  
    11     4    23 ar  
    12     4    44 1   
    13     5     6 ar  
    14     5    34 1   
    15     6    24 ar  
    16     6    35 1   
    17     7    23 ar  
    18     7    24 ar  
    19     7    36 1   
    20     8     9 ar  
    21     8    14 1   
    22     8    31 ar  
    23     9    10 1   
    24     9    28 ar  
    25    10    11 2   
    26    10    12 1   
    27    12    13 2   
    28    12    18 1   
    29    13    14 1   
    30    13    16 1   
    31    14    15 2   
    32    16    17 1   
    33    16    19 1   
    34    17    18 2   
    35    20    27 1   
    36    21    22 1   
    37    24    25 1   
    38    25    26 1   
    39    25    37 1   
    40    25    38 1   
    41    26    39 1   
    42    28    29 ar  
    43    28    40 1   
    44    29    30 ar  
    45    29    41 1   
    46    30    31 ar  
    47    30    42 1   
    48    31    43 1   
@<TRIPOS>SUBSTRUCTURE
     1 B6U         1 TEMP              0 ****  ****    0 ROOT
