@<TRIPOS>MOLECULE
B6U
   44    48     1     0     0
SMALL
bcc


@<TRIPOS>ATOM
      1 C13        -26.4560    22.0140    22.7470 ca         1 B6U      -0.166000
      2 C15        -24.6130    23.5880    22.4950 cp         1 B6U      -0.103000
      3 C17        -26.4020    24.0340    24.0870 ca         1 B6U      -0.166000
      4 C20        -23.2630    24.2820    20.5210 ca         1 B6U       0.166900
      5 C21        -22.0780    24.6380    19.9120 ca         1 B6U      -0.175000
      6 C22        -20.9200    24.6900    20.6740 ca         1 B6U      -0.061000
      7 C24        -22.1570    24.0270    22.6120 ca         1 B6U      -0.072000
      8 C1         -31.3730    21.8620    22.3770 ca         1 B6U      -0.137600
      9 C2         -32.1450    21.5110    23.5010 ca         1 B6U      -0.126600
     10 C3         -31.5820    21.5030    24.8810 c          1 B6U       0.514200
     11 O4         -32.2320    21.2190    25.8610 o          1 B6U      -0.470100
     12 C5         -30.1680    21.8710    24.9530 cc         1 B6U       0.225800
     13 C6         -29.4190    22.1810    23.8510 cd         1 B6U      -0.236200
     14 C7         -29.9390    22.2420    22.4820 c          1 B6U       0.623300
     15 O8         -29.2650    22.5800    21.5370 o          1 B6U      -0.487100
     16 N9         -28.2060    22.4660    24.3550 na         1 B6U       0.196300
     17 N10        -28.2210    22.3370    25.6820 nd         1 B6U      -0.168800
     18 N11        -29.3950    21.9820    26.0500 nc         1 B6U      -0.294000
     19 C12        -27.0050    22.8480    23.7060 ca         1 B6U       0.048800
     20 C14        -25.2740    22.4130    22.1610 ca         1 B6U       0.191400
     21 C16        -25.2150    24.3720    23.4690 ca         1 B6U       0.191400
     22 F18        -24.6220    25.5150    23.8130 f          1 B6U      -0.118900
     23 C19        -23.3340    23.9710    21.8700 cp         1 B6U      -0.090000
     24 C23        -20.9470    24.3860    22.0330 ca         1 B6U      -0.104300
     25 C25        -19.7100    24.4760    22.8840 c3         1 B6U       0.189700
     26 O26        -18.5780    24.1670    22.1110 oh         1 B6U      -0.594800
     27 F28        -24.7190    21.6200    21.2450 f          1 B6U      -0.118900
     28 C29        -33.4790    21.1650    23.3330 ca         1 B6U      -0.085000
     29 C30        -34.0510    21.1610    22.0690 ca         1 B6U      -0.107000
     30 C31        -33.2910    21.5080    20.9610 ca         1 B6U      -0.116000
     31 C32        -31.9580    21.8580    21.1160 ca         1 B6U      -0.080000
     32 H131       -26.9170    21.0740    22.4740 ha         1 B6U       0.175500
     33 H171       -26.8460    24.6830    24.8280 ha         1 B6U       0.175500
     34 H211       -22.0600    24.8730    18.8560 ha         1 B6U       0.154000
     35 H221       -19.9930    24.9710    20.1950 ha         1 B6U       0.152000
     36 H241       -22.1920    23.7660    23.6630 ha         1 B6U       0.138000
     37 H251       -19.6440    25.4910    23.2980 h1         1 B6U       0.029200
     38 H252       -19.8160    23.7990    23.7410 h1         1 B6U       0.029200
     39 H261       -17.7970    24.4090    22.6160 ho         1 B6U       0.409000
     40 H291       -34.0760    20.8980    24.1940 ha         1 B6U       0.160000
     41 H301       -35.0910    20.8900    21.9500 ha         1 B6U       0.143000
     42 H311       -33.7330    21.5060    19.9750 ha         1 B6U       0.143000
     43 H321       -31.3690    22.1270    20.2490 ha         1 B6U       0.157000
     44 F27        -24.3870    24.2390    19.7920 f          1 B6U      -0.134900
@<TRIPOS>BOND
     1     1    19 ar  
     2     1    20 ar  
     3     1    32 1   
     4     2    20 ar  
     5     2    21 ar  
     6     2    23 1   
     7     3    19 ar  
     8     3    21 ar  
     9     3    33 1   
    10     4     5 ar  
    11     4    23 ar  
    12     4    44 1   
    13     5     6 ar  
    14     5    34 1   
    15     6    24 ar  
    16     6    35 1   
    17     7    23 ar  
    18     7    24 ar  
    19     7    36 1   
    20     8     9 ar  
    21     8    14 1   
    22     8    31 ar  
    23     9    10 1   
    24     9    28 ar  
    25    10    11 2   
    26    10    12 1   
    27    12    13 2   
    28    12    18 1   
    29    13    14 1   
    30    13    16 1   
    31    14    15 2   
    32    16    17 1   
    33    16    19 1   
    34    17    18 2   
    35    20    27 1   
    36    21    22 1   
    37    24    25 1   
    38    25    26 1   
    39    25    37 1   
    40    25    38 1   
    41    26    39 1   
    42    28    29 ar  
    43    28    40 1   
    44    29    30 ar  
    45    29    41 1   
    46    30    31 ar  
    47    30    42 1   
    48    31    43 1   
@<TRIPOS>SUBSTRUCTURE
     1 B6U         1 TEMP              0 ****  ****    0 ROOT
