@<TRIPOS>MOLECULE
B6V
   54    56     1     0     0
SMALL
No Charge or Current Charge


@<TRIPOS>ATOM
      1 C4           5.0010     3.3180   -57.9900 ca         1 B6V       0.523900
      2 C14          4.4680     3.6740   -53.6510 c6         1 B6V       0.057700
      3 C5           5.8130     2.5600   -57.1380 ca         1 B6V      -0.191800
      4 C6           6.7960     1.7170   -57.6890 ca         1 B6V       0.004000
      5 C8           3.7490     4.2940   -56.0600 c          1 B6V       0.585200
      6 C9           4.6560     3.5290   -55.1590 cc         1 B6V      -0.306400
      7 C10          5.5920     2.6870   -55.7110 cd         1 B6V       0.242900
      8 N3           5.1310     3.2720   -59.3360 nb         1 B6V      -0.736000
      9 C25          3.9650     7.1820   -51.8780 c3         1 B6V      -0.053900
     10 C26          3.0510     4.9490   -51.1470 c3         1 B6V      -0.053900
     11 C23          4.5000     5.1470   -53.2460 c2         1 B6V      -0.204200
     12 C15          5.5900     2.9320   -52.8850 c6         1 B6V      -0.106400
     13 O12          2.8360     4.9880   -55.6320 o          1 B6V      -0.543000
     14 N7           3.9760     4.1680   -57.4520 n          1 B6V      -0.368300
     15 C19          1.9090     4.1610   -58.9120 c3         1 B6V      -0.106100
     16 C2           6.0740     2.4700   -59.8680 ca         1 B6V       0.422300
     17 C18          6.1650     2.4600   -61.3800 c3         1 B6V      -0.153400
     18 C1           6.9230     1.6770   -59.0830 ca         1 B6V      -0.219000
     19 O11          6.3140     1.8220   -54.9260 os         1 B6V      -0.347100
     20 C16          5.9640     1.5910   -53.5510 c6         1 B6V       0.195000
     21 C17          4.7880     0.5660   -53.5370 c3         1 B6V      -0.115100
     22 C20          7.2140     0.9570   -52.8750 c3         1 B6V      -0.116700
     23 C21          7.7500    -0.2820   -53.5580 c2         1 B6V       0.379200
     24 N22          7.7800    -1.4380   -52.9760 n2         1 B6V      -0.340700
     25 O27          8.3270    -2.4580   -53.7770 oh         1 B6V      -0.517000
     26 H1           3.4980     3.2360   -53.3790 hc         1 B6V       0.068700
     27 H2           7.4470     1.1120   -57.0610 ha         1 B6V       0.132000
     28 H3           3.7080     5.3260   -59.2240 h1         1 B6V       0.069200
     29 H4           2.7420     5.8620   -57.8720 h1         1 B6V       0.069200
     30 H5           2.9680     7.6370   -51.8690 hc         1 B6V       0.038033
     31 H6           4.4250     7.3620   -50.8990 hc         1 B6V       0.038033
     32 H7           4.5630     7.7170   -52.6250 hc         1 B6V       0.038033
     33 H8           2.0110     5.2980   -51.1590 hc         1 B6V       0.038033
     34 H9           3.0330     3.8670   -51.3060 hc         1 B6V       0.038033
     35 H10          3.4430     5.1140   -50.1360 hc         1 B6V       0.038033
     36 H11          5.0810     5.7880   -53.9110 ha         1 B6V       0.171000
     37 H12          6.4850     3.5700   -52.8540 hc         1 B6V       0.060700
     38 H13          5.2930     2.7730   -51.8400 hc         1 B6V       0.060700
     39 H14          1.3050     4.7840   -59.5820 hc         1 B6V       0.043367
     40 H15          2.2440     3.2800   -59.4720 hc         1 B6V       0.043367
     41 H16          1.2720     3.8250   -58.0860 hc         1 B6V       0.043367
     42 H17          6.0140     3.4640   -61.7950 hc         1 B6V       0.056033
     43 H18          7.1460     2.1070   -61.7170 hc         1 B6V       0.056033
     44 H19          5.4030     1.7990   -61.8080 hc         1 B6V       0.056033
     45 H20          7.6680     1.0390   -59.5500 ha         1 B6V       0.128000
     46 H21          4.5000     0.3110   -52.5110 hc         1 B6V       0.053033
     47 H22          3.8960     0.9550   -54.0410 hc         1 B6V       0.053033
     48 H23          5.0570    -0.3670   -54.0470 hc         1 B6V       0.053033
     49 H24          6.9840     0.7290   -51.8270 hc         1 B6V       0.071700
     50 H25          8.0210     1.6970   -52.8410 hc         1 B6V       0.071700
     51 H26          8.1330    -0.1550   -54.5690 h4         1 B6V       0.011800
     52 H29          8.2920    -3.2740   -53.2200 ho         1 B6V       0.469000
     53 C13          3.1130     4.9610   -58.3770 c3         1 B6V       0.100000
     54 C24          3.8850     5.6960   -52.1790 c2         1 B6V      -0.104400
@<TRIPOS>BOND
     1     1     3 ar  
     2     1     8 ar  
     3     1    14 1   
     4     2     6 1   
     5     2    11 1   
     6     2    12 1   
     7     2    26 1   
     8     3     4 ar  
     9     3     7 1   
    10     4    18 ar  
    11     4    27 1   
    12     5     6 1   
    13     5    13 2   
    14     5    14 1   
    15     6     7 2   
    16     7    19 1   
    17     8    16 ar  
    18     9    30 1   
    19     9    31 1   
    20     9    32 1   
    21     9    54 1   
    22    10    33 1   
    23    10    34 1   
    24    10    35 1   
    25    10    54 1   
    26    11    36 1   
    27    11    54 2   
    28    12    20 1   
    29    12    37 1   
    30    12    38 1   
    31    14    53 1   
    32    15    39 1   
    33    15    40 1   
    34    15    41 1   
    35    15    53 1   
    36    16    17 1   
    37    16    18 ar  
    38    17    42 1   
    39    17    43 1   
    40    17    44 1   
    41    18    45 1   
    42    19    20 1   
    43    20    21 1   
    44    20    22 1   
    45    21    46 1   
    46    21    47 1   
    47    21    48 1   
    48    22    23 1   
    49    22    49 1   
    50    22    50 1   
    51    23    24 2   
    52    23    51 1   
    53    24    25 1   
    54    25    52 1   
    55    28    53 1   
    56    29    53 1   
@<TRIPOS>SUBSTRUCTURE
     1 B6V         1 TEMP              0 ****  ****    0 ROOT
