@<TRIPOS>MOLECULE
B6V
   54    56     1     0     0
SMALL
bcc


@<TRIPOS>ATOM
      1 C4           4.9910     3.3320   -57.9560 ca         1 B6V       0.589200
      2 C14          4.5050     3.6510   -53.6840 c6         1 B6V       0.057700
      3 C5           5.7760     2.5300   -57.1160 ca         1 B6V      -0.257100
      4 C6           6.7040     1.6810   -57.7210 ca         1 B6V      -0.014000
      5 C8           3.7950     4.2320   -56.0540 c          1 B6V       0.727700
      6 C9           4.6760     3.4890   -55.1720 cc         1 B6V      -0.306400
      7 C10          5.5850     2.6270   -55.6960 cd         1 B6V       0.242900
      8 N3           5.1060     3.3090   -59.2810 nb         1 B6V      -0.736000
      9 C25          4.0570     7.0820   -51.8730 c3         1 B6V      -0.053900
     10 C26          2.8580     4.9160   -51.3870 c3         1 B6V      -0.053900
     11 C23          4.5320     5.0930   -53.2510 c2         1 B6V      -0.154200
     12 C15          5.6480     2.9280   -52.9630 c6         1 B6V      -0.106400
     13 O12          2.8590     4.8990   -55.6320 o          1 B6V      -0.618500
     14 N7           4.0460     4.1710   -57.4190 n          1 B6V      -0.435300
     15 C19          1.9700     4.2020   -58.7790 c3         1 B6V      -0.106100
     16 C2           5.9930     2.5070   -59.8460 ca         1 B6V       0.487600
     17 C18          6.0830     2.5150   -61.3400 c3         1 B6V      -0.153400
     18 C1           6.8190     1.6660   -59.0920 ca         1 B6V      -0.302300
     19 O11          6.3560     1.8140   -54.9740 os         1 B6V      -0.323900
     20 C16          5.9950     1.5900   -53.5960 c6         1 B6V       0.171800
     21 C17          4.8390     0.6010   -53.5380 c3         1 B6V      -0.115100
     22 C20          7.2520     1.0150   -52.9380 c3         1 B6V      -0.116700
     23 C21          7.7500    -0.2440   -53.5630 c2         1 B6V       0.379200
     24 N22          7.7620    -1.3150   -52.8890 n2         1 B6V      -0.439200
     25 O27          8.2620    -2.3780   -53.5880 oh         1 B6V      -0.379500
     26 H1           3.5540     3.1960   -53.3930 hc         1 B6V       0.068700
     27 H2           7.3290     1.0390   -57.1160 ha         1 B6V       0.150000
     28 H3           3.8000     5.2740   -59.1560 h1         1 B6V       0.069200
     29 H4           2.9040     5.8620   -57.7680 h1         1 B6V       0.069200
     30 H5           3.1200     7.6420   -51.9440 hc         1 B6V       0.038033
     31 H6           4.3960     7.1780   -50.8380 hc         1 B6V       0.038033
     32 H7           4.7900     7.5710   -52.5140 hc         1 B6V       0.038033
     33 H8           1.8870     5.4150   -51.4220 hc         1 B6V       0.038033
     34 H9           2.7080     3.8760   -51.6730 hc         1 B6V       0.038033
     35 H10          3.1730     4.9280   -50.3400 hc         1 B6V       0.038033
     36 H11          5.2470     5.7170   -53.7820 ha         1 B6V       0.121000
     37 H12          6.5420     3.5600   -52.9760 hc         1 B6V       0.060700
     38 H13          5.3830     2.7800   -51.9150 hc         1 B6V       0.060700
     39 H14          1.3750     4.8340   -59.4390 hc         1 B6V       0.043367
     40 H15          2.2510     3.3080   -59.3340 hc         1 B6V       0.043367
     41 H16          1.3400     3.9050   -57.9410 hc         1 B6V       0.043367
     42 H17          5.4230     3.2660   -61.7670 hc         1 B6V       0.056033
     43 H18          7.1040     2.7200   -61.6680 hc         1 B6V       0.056033
     44 H19          5.8080     1.5410   -61.7490 hc         1 B6V       0.056033
     45 H20          7.5310     1.0170   -59.5820 ha         1 B6V       0.146000
     46 H21          4.5910     0.3900   -52.4980 hc         1 B6V       0.053033
     47 H22          3.9400     0.9850   -54.0210 hc         1 B6V       0.053033
     48 H23          5.0980    -0.3420   -54.0190 hc         1 B6V       0.053033
     49 H24          7.0320     0.8350   -51.8840 hc         1 B6V       0.071700
     50 H25          8.0440     1.7690   -52.9790 hc         1 B6V       0.071700
     51 H26          8.1120    -0.2110   -54.5910 h4         1 B6V       0.011800
     52 H29          8.2120    -3.1140   -52.9690 ho         1 B6V       0.430000
     53 C13          3.1960     4.9650   -58.3070 c3         1 B6V       0.100000
     54 C24          3.8540     5.6410   -52.2410 c2         1 B6V      -0.104400
@<TRIPOS>BOND
     1     1     3 ar  
     2     1     8 ar  
     3     1    14 1   
     4     2     6 1   
     5     2    11 1   
     6     2    12 1   
     7     2    26 1   
     8     3     4 ar  
     9     3     7 1   
    10     4    18 ar  
    11     4    27 1   
    12     5     6 1   
    13     5    13 2   
    14     5    14 1   
    15     6     7 2   
    16     7    19 1   
    17     8    16 ar  
    18     9    30 1   
    19     9    31 1   
    20     9    32 1   
    21     9    54 1   
    22    10    33 1   
    23    10    34 1   
    24    10    35 1   
    25    10    54 1   
    26    11    36 1   
    27    11    54 2   
    28    12    20 1   
    29    12    37 1   
    30    12    38 1   
    31    14    53 1   
    32    15    39 1   
    33    15    40 1   
    34    15    41 1   
    35    15    53 1   
    36    16    17 1   
    37    16    18 ar  
    38    17    42 1   
    39    17    43 1   
    40    17    44 1   
    41    18    45 1   
    42    19    20 1   
    43    20    21 1   
    44    20    22 1   
    45    21    46 1   
    46    21    47 1   
    47    21    48 1   
    48    22    23 1   
    49    22    49 1   
    50    22    50 1   
    51    23    24 2   
    52    23    51 1   
    53    24    25 1   
    54    25    52 1   
    55    28    53 1   
    56    29    53 1   
@<TRIPOS>SUBSTRUCTURE
     1 B6V         1 TEMP              0 ****  ****    0 ROOT
