@<TRIPOS>MOLECULE
B6W
   45    47     1     0     0
SMALL
bcc


@<TRIPOS>ATOM
      1 C16          6.0420     1.4420    -0.6010 cc         1 B6W       0.381200
      2 C15          4.5390     3.4550    -0.1830 cg         1 B6W       0.278800
      3 C14          4.8160     2.0830    -0.2970 cc         1 B6W      -0.279300
      4 C13          3.9300     1.0280    -0.1330 cd         1 B6W       0.201300
      5 C10         -5.9620     0.7740     0.2980 c          1 B6W       0.661100
      6 C12         -0.1200    -0.8950     1.6130 cc         1 B6W       0.348200
      7 N           -1.4780     0.4890     0.7840 na         1 B6W       0.120400
      8 C            4.1030    -1.4050    -0.2510 c          1 B6W       0.634500
      9 O            4.8370    -2.3530    -0.4170 o          1 B6W      -0.532500
     10 C1           2.6800    -1.4400     0.0240 cd         1 B6W      -0.256400
     11 C11         -7.1590     1.5940    -0.1580 c3         1 B6W      -0.059000
     12 C2           1.9850    -2.7840     0.0070 c3         1 B6W       0.009500
     13 C3           2.1550    -3.5220    -1.3230 c3         1 B6W      -0.088100
     14 C4           2.3780    -3.6630     1.1950 c3         1 B6W      -0.088100
     15 C5           2.0020    -0.2760     0.2660 cc         1 B6W       0.277800
     16 C6           0.5940    -0.1810     0.6280 cc         1 B6W      -0.292100
     17 C7          -0.3350     0.7090     0.1220 cd         1 B6W      -0.110300
     18 C9          -3.6600     0.2040    -0.2990 c3         1 B6W       0.086000
     19 N1          -4.9360     0.8200    -0.5670 ns         1 B6W      -0.583900
     20 N2          -1.3650    -0.4810     1.6910 nd         1 B6W      -0.500800
     21 N3           2.6300     0.9390     0.1790 na         1 B6W      -0.596400
     22 N4           4.3060     4.5810    -0.0880 n1         1 B6W      -0.387800
     23 N5           5.9310     0.1430    -0.6210 nd         1 B6W      -0.470800
     24 N6           4.6360    -0.1030    -0.3350 n          1 B6W       0.073300
     25 O1          -5.9370     0.1670     1.3510 o          1 B6W      -0.551100
     26 CL          -8.6380     1.0930     0.6850 cl         1 B6W      -0.133400
     27 H1           6.9880     1.9220    -0.8020 h4         1 B6W       0.051100
     28 H2           0.2470    -1.6680     2.2710 h4         1 B6W       0.055100
     29 H4          -6.9810     2.6460     0.0670 h1         1 B6W       0.078700
     30 H5          -7.3240     1.4990    -1.2300 h1         1 B6W       0.078700
     31 H6           0.9160    -2.5860     0.0970 hc         1 B6W       0.047700
     32 H7           3.1680    -3.8890    -1.4720 hc         1 B6W       0.040867
     33 H8           1.4830    -4.3810    -1.3470 hc         1 B6W       0.040867
     34 H9           1.8950    -2.8800    -2.1660 hc         1 B6W       0.040867
     35 H10          2.2110    -3.1500     2.1440 hc         1 B6W       0.040867
     36 H11          1.7740    -4.5720     1.2010 hc         1 B6W       0.040867
     37 H12          3.4250    -3.9580     1.1510 hc         1 B6W       0.040867
     38 H13         -0.2600     1.4510    -0.6570 h4         1 B6W       0.179000
     39 H14         -3.2220     1.3260     1.5060 h1         1 B6W       0.076700
     40 H15         -2.5860     2.0550     0.0310 h1         1 B6W       0.076700
     41 H16         -3.1790    -0.0070    -1.2540 h1         1 B6W       0.073700
     42 H17         -3.8120    -0.7480     0.2080 h1         1 B6W       0.073700
     43 H18         -5.0260     1.3600    -1.4130 hn         1 B6W       0.317500
     44 H3           2.1260     1.7780     0.4300 hn         1 B6W       0.476800
     45 C8          -2.7610     1.1090     0.5430 c3         1 B6W       0.026300
@<TRIPOS>BOND
     1     1     3 1   
     2     1    23 2   
     3     1    27 1   
     4     2     3 1   
     5     2    22 3   
     6     3     4 2   
     7     4    21 1   
     8     4    24 1   
     9     5    11 1   
    10     5    19 1   
    11     5    25 2   
    12     6    16 1   
    13     6    20 2   
    14     6    28 1   
    15     7    17 1   
    16     7    20 1   
    17     7    45 1   
    18     8     9 2   
    19     8    10 1   
    20     8    24 1   
    21    10    12 1   
    22    10    15 2   
    23    11    26 1   
    24    11    29 1   
    25    11    30 1   
    26    12    13 1   
    27    12    14 1   
    28    12    31 1   
    29    13    32 1   
    30    13    33 1   
    31    13    34 1   
    32    14    35 1   
    33    14    36 1   
    34    14    37 1   
    35    15    16 1   
    36    15    21 1   
    37    16    17 2   
    38    17    38 1   
    39    18    19 1   
    40    18    41 1   
    41    18    42 1   
    42    18    45 1   
    43    19    43 1   
    44    21    44 1   
    45    23    24 1   
    46    39    45 1   
    47    40    45 1   
@<TRIPOS>SUBSTRUCTURE
     1 B6W         1 TEMP              0 ****  ****    0 ROOT
