@<TRIPOS>MOLECULE
B6W
   45    47     1     0     0
SMALL
No Charge or Current Charge


@<TRIPOS>ATOM
      1 C16          5.6810     1.8250    -0.6570 cc         1 B6W       0.315900
      2 C15          3.7120     3.3980    -0.7430 cg         1 B6W       0.368000
      3 C14          4.3000     2.1180    -0.5960 cc         1 B6W      -0.214000
      4 C13          3.7720     0.8980    -0.3650 cd         1 B6W       0.289000
      5 C10         -6.0390     1.1970     0.2620 c          1 B6W       0.594100
      6 C12         -0.2920    -1.5390     1.0520 cc         1 B6W       0.282900
      7 N           -1.6040     0.0850     0.7610 na         1 B6W       0.141800
      8 C            4.3070    -1.3890    -0.0560 c          1 B6W       0.559000
      9 O            5.1390    -2.2870     0.0290 o          1 B6W      -0.457000
     10 C1           2.8030    -1.5860     0.0730 cd         1 B6W      -0.256400
     11 C11         -7.1970     2.1910     0.0760 c3         1 B6W       0.017600
     12 C2           2.3670    -3.0590     0.1060 c3         1 B6W       0.009500
     13 C3           2.9070    -3.9240    -1.0630 c3         1 B6W      -0.088100
     14 C4           2.6100    -3.7150     1.4840 c3         1 B6W      -0.088100
     15 C5           1.8930    -0.5020     0.1090 cc         1 B6W       0.277800
     16 C6           0.4820    -0.5260     0.4460 cc         1 B6W      -0.226800
     17 C7          -0.3710     0.5350     0.2830 cd         1 B6W      -0.143000
     18 C9          -3.6920     0.6540    -0.5040 c3         1 B6W       0.086000
     19 N1          -4.9250     1.4560    -0.5130 ns         1 B6W      -0.516900
     20 N2          -1.5520    -1.2100     1.2490 nd         1 B6W      -0.500800
     21 N3           2.4220     0.7500    -0.1960 na         1 B6W      -0.790000
     22 N4           3.2010     4.4410    -0.8580 n1         1 B6W      -0.477000
     23 N5           5.9700     0.5350    -0.4760 nd         1 B6W      -0.470800
     24 N6           4.7040    -0.0690    -0.2810 n          1 B6W       0.124000
     25 O1          -6.0820     0.2450     1.0300 o          1 B6W      -0.551100
     26 Cl          -8.6580     1.8580     1.1210 cl         1 B6W      -0.210000
     27 H1           6.4910     2.5210    -0.8280 h4         1 B6W       0.051100
     28 H2           0.0190    -2.5090     1.4110 h4         1 B6W       0.055100
     29 H4          -6.8350     3.1980     0.3120 h1         1 B6W       0.078700
     30 H5          -7.5170     2.1630    -0.9720 h1         1 B6W       0.078700
     31 H6           1.2960    -3.1020    -0.0900 hc         1 B6W       0.047700
     32 H7           3.9470    -4.2330    -0.9130 hc         1 B6W       0.040867
     33 H8           2.3130    -4.8410    -1.1570 hc         1 B6W       0.040867
     34 H9           2.8350    -3.3800    -2.0120 hc         1 B6W       0.040867
     35 H10          2.1690    -3.1100     2.2850 hc         1 B6W       0.040867
     36 H11          2.1570    -4.7130     1.5210 hc         1 B6W       0.040867
     37 H12          3.6820    -3.8200     1.6910 hc         1 B6W       0.040867
     38 H13         -0.2350     1.5280    -0.1270 h4         1 B6W       0.161000
     39 H14         -3.4480     0.5330     1.6520 h1         1 B6W       0.076700
     40 H15         -2.6200     1.9100     0.9020 h1         1 B6W       0.076700
     41 H16         -3.0830     0.9370    -1.3730 h1         1 B6W       0.073700
     42 H17         -3.9540    -0.4080    -0.6110 h1         1 B6W       0.073700
     43 H18         -4.9740     2.2610    -1.1290 hn         1 B6W       0.317500
     44 H3           1.8150     1.5620    -0.2370 hn         1 B6W       0.532000
     45 C8          -2.8610     0.8470     0.7810 c3         1 B6W       0.055600
@<TRIPOS>BOND
     1     1     3 1   
     2     1    23 2   
     3     1    27 1   
     4     2     3 1   
     5     2    22 3   
     6     3     4 2   
     7     4    21 1   
     8     4    24 1   
     9     5    11 1   
    10     5    19 1   
    11     5    25 2   
    12     6    16 1   
    13     6    20 2   
    14     6    28 1   
    15     7    17 1   
    16     7    20 1   
    17     7    45 1   
    18     8     9 2   
    19     8    10 1   
    20     8    24 1   
    21    10    12 1   
    22    10    15 2   
    23    11    26 1   
    24    11    29 1   
    25    11    30 1   
    26    12    13 1   
    27    12    14 1   
    28    12    31 1   
    29    13    32 1   
    30    13    33 1   
    31    13    34 1   
    32    14    35 1   
    33    14    36 1   
    34    14    37 1   
    35    15    16 1   
    36    15    21 1   
    37    16    17 2   
    38    17    38 1   
    39    18    19 1   
    40    18    41 1   
    41    18    42 1   
    42    18    45 1   
    43    19    43 1   
    44    21    44 1   
    45    23    24 1   
    46    39    45 1   
    47    40    45 1   
@<TRIPOS>SUBSTRUCTURE
     1 B6W         1 TEMP              0 ****  ****    0 ROOT
