@<TRIPOS>MOLECULE
B6X
   34    33     1     0     0
SMALL
abcg2


@<TRIPOS>ATOM
      1 OAB         -2.0340    -2.9770    -1.1340 o          1 B6X      -0.740500
      2 CAN         -1.6990    -2.8500     0.0560 c          1 B6X       0.735000
      3 OAD         -1.7470    -3.7120     0.9540 o          1 B6X      -0.740500
      4 CAK         -1.1420    -1.4810     0.4940 c3         1 B6X      -0.072400
      5 SAM         -1.2260    -0.2900    -0.8640 ss         1 B6X      -0.400000
      6 CAP         -0.6860     1.2560    -0.0460 c3         1 B6X       0.075300
      7 CAL         -1.7690     1.8010     0.8740 c3         1 B6X      -0.187400
      8 CAO         -3.0850     2.1630     0.1650 c          1 B6X       0.733000
      9 OAE         -2.9910     2.6910    -0.9610 o          1 B6X      -0.749500
     10 OAC         -4.1420     1.9460     0.7930 o          1 B6X      -0.749500
     11 CAJ          0.6570     1.1330     0.6670 c3         1 B6X      -0.064400
     12 CAI          1.8160     0.6700    -0.2040 c3         1 B6X      -0.078400
     13 CAH          3.1370     0.6360     0.5550 c3         1 B6X      -0.072400
     14 CAG          4.3180     0.1990    -0.3030 c3         1 B6X      -0.076400
     15 CAF          5.6300     0.1370     0.4710 c3         1 B6X      -0.076400
     16 CAA          6.8110    -0.2860    -0.3920 c3         1 B6X      -0.086100
     17 H2          -1.7040    -1.1160     1.3570 h1         1 B6X       0.031200
     18 H3          -0.1080    -1.6130     0.8240 h1         1 B6X       0.031200
     19 H4          -0.5770     1.9500    -0.8840 h1         1 B6X       0.076700
     20 H5          -1.9550     1.1020     1.6940 hc         1 B6X       0.008700
     21 H6          -1.3850     2.7160     1.3450 hc         1 B6X       0.008700
     22 H8           0.8980     2.1180     1.0820 hc         1 B6X       0.019700
     23 H9           0.5590     0.4660     1.5300 hc         1 B6X       0.019700
     24 H10          1.6000    -0.3240    -0.6080 hc         1 B6X       0.049700
     25 H11          1.9050     1.3370    -1.0690 hc         1 B6X       0.049700
     26 H12          3.3450     1.6260     0.9740 hc         1 B6X       0.025700
     27 H13          3.0450    -0.0420     1.4110 hc         1 B6X       0.025700
     28 H14          4.1070    -0.7840    -0.7390 hc         1 B6X       0.037200
     29 H15          4.4270     0.8880    -1.1470 hc         1 B6X       0.037200
     30 H16          5.8350     1.1160     0.9150 hc         1 B6X       0.030700
     31 H17          5.5220    -0.5590     1.3080 hc         1 B6X       0.030700
     32 H18          6.6520    -1.2780    -0.8210 hc         1 B6X       0.022033
     33 H19          6.9650     0.4090    -1.2200 hc         1 B6X       0.022033
     34 H20          7.7370    -0.3220     0.1850 hc         1 B6X       0.022033
@<TRIPOS>BOND
     1     1     2 1   
     2     2     3 1   
     3     2     4 1   
     4     4     5 1   
     5     4    17 1   
     6     4    18 1   
     7     5     6 1   
     8     6     7 1   
     9     6    11 1   
    10     6    19 1   
    11     7     8 1   
    12     7    20 1   
    13     7    21 1   
    14     8     9 1   
    15     8    10 1   
    16    11    12 1   
    17    11    22 1   
    18    11    23 1   
    19    12    13 1   
    20    12    24 1   
    21    12    25 1   
    22    13    14 1   
    23    13    26 1   
    24    13    27 1   
    25    14    15 1   
    26    14    28 1   
    27    14    29 1   
    28    15    16 1   
    29    15    30 1   
    30    15    31 1   
    31    16    32 1   
    32    16    33 1   
    33    16    34 1   
@<TRIPOS>SUBSTRUCTURE
     1 B6X         1 TEMP              0 ****  ****    0 ROOT
