@<TRIPOS>MOLECULE
B6X
   34    33     1     0     0
SMALL
No Charge or Current Charge


@<TRIPOS>ATOM
      1 OAB         -0.8210    -3.7390    -0.3450 o          1 B6X      -0.740500
      2 CAN         -1.6280    -2.9720     0.1630 c          1 B6X       0.735000
      3 OAD         -2.7910    -3.2780     0.3930 o          1 B6X      -0.740500
      4 CAK         -1.1450    -1.5550     0.5660 c3         1 B6X      -0.072400
      5 SAM         -1.2770    -0.2950    -0.8100 ss         1 B6X      -0.400000
      6 CAP         -0.7460     1.2820     0.0320 c3         1 B6X       0.075300
      7 CAL         -1.8500     1.8190     0.9820 c3         1 B6X      -0.187400
      8 CAO         -3.0620     2.3320     0.1800 c          1 B6X       0.733000
      9 OAE         -3.0090     3.4670    -0.2720 o          1 B6X      -0.749500
     10 OAC         -4.0290     1.5990     0.0370 o          1 B6X      -0.749500
     11 CAJ          0.6290     1.1370     0.7440 c3         1 B6X      -0.064400
     12 CAI          1.7890     0.6930    -0.1800 c3         1 B6X      -0.078400
     13 CAH          3.1510     0.6420     0.5470 c3         1 B6X      -0.072400
     14 CAG          4.3100     0.1980    -0.3720 c3         1 B6X      -0.076400
     15 CAF          5.6720     0.1480     0.3550 c3         1 B6X      -0.076400
     16 CAA          6.8290    -0.2950    -0.5610 c3         1 B6X      -0.086100
     17 H2          -1.7390    -1.2190     1.4240 h1         1 B6X       0.031200
     18 H3          -0.0980    -1.6330     0.8840 h1         1 B6X       0.031200
     19 H4          -0.6110     2.0310    -0.7610 h1         1 B6X       0.076700
     20 H5          -2.1330     1.0050     1.6590 hc         1 B6X       0.008700
     21 H6          -1.3850     2.6680     1.5000 hc         1 B6X       0.008700
     22 H8           0.8960     2.1070     1.1800 hc         1 B6X       0.019700
     23 H9           0.5420     0.4400     1.5860 hc         1 B6X       0.019700
     24 H10          1.5750    -0.2990    -0.5940 hc         1 B6X       0.049700
     25 H11          1.8580     1.3860    -1.0280 hc         1 B6X       0.049700
     26 H12          3.3770     1.6340     0.9580 hc         1 B6X       0.025700
     27 H13          3.0800    -0.0490     1.3960 hc         1 B6X       0.025700
     28 H14          4.0840    -0.7940    -0.7830 hc         1 B6X       0.037200
     29 H15          4.3810     0.8890    -1.2220 hc         1 B6X       0.037200
     30 H16          5.9020     1.1390     0.7650 hc         1 B6X       0.030700
     31 H17          5.6060    -0.5440     1.2040 hc         1 B6X       0.030700
     32 H18          6.6450    -1.3000    -0.9610 hc         1 B6X       0.022033
     33 H19          6.9440     0.3980    -1.4030 hc         1 B6X       0.022033
     34 H20          7.7720    -0.3160    -0.0020 hc         1 B6X       0.022033
@<TRIPOS>BOND
     1     1     2 1   
     2     2     3 1   
     3     2     4 1   
     4     4     5 1   
     5     4    17 1   
     6     4    18 1   
     7     5     6 1   
     8     6     7 1   
     9     6    11 1   
    10     6    19 1   
    11     7     8 1   
    12     7    20 1   
    13     7    21 1   
    14     8     9 1   
    15     8    10 1   
    16    11    12 1   
    17    11    22 1   
    18    11    23 1   
    19    12    13 1   
    20    12    24 1   
    21    12    25 1   
    22    13    14 1   
    23    13    26 1   
    24    13    27 1   
    25    14    15 1   
    26    14    28 1   
    27    14    29 1   
    28    15    16 1   
    29    15    30 1   
    30    15    31 1   
    31    16    32 1   
    32    16    33 1   
    33    16    34 1   
@<TRIPOS>SUBSTRUCTURE
     1 B6X         1 TEMP              0 ****  ****    0 ROOT
