@<TRIPOS>MOLECULE
B6Y
   86    87     1     0     0
SMALL
abcg2


@<TRIPOS>ATOM
      1 C02         -0.5340    -1.7390     0.7290 c          1 B6Y       0.669100
      2 C04          1.6630    -2.4380    -0.1340 c3         1 B6Y       0.048700
      3 C05          2.1190    -3.8340    -0.5440 c3         1 B6Y      -0.075400
      4 C06          1.4730    -4.9660     0.2540 c3         1 B6Y      -0.059700
      5 C07          1.9770    -6.3090    -0.2660 c3         1 B6Y      -0.089100
      6 C08          1.7280    -4.8430     1.7540 c3         1 B6Y      -0.089100
      7 C09          2.3170    -1.3580    -1.0080 c          1 B6Y       0.588100
      8 C11          3.0210     1.0190    -1.0220 c3         1 B6Y       0.155700
      9 C12          4.4720     0.8400    -1.4820 c3         1 B6Y      -0.065400
     10 C13          5.3720     0.3120    -0.3780 c5         1 B6Y      -0.143700
     11 C14          6.8160     0.1460    -0.8270 c          1 B6Y       0.561000
     12 C16          6.8910     0.9040     1.3960 c5         1 B6Y       0.099000
     13 C17          5.4900     1.2030     0.8590 c5         1 B6Y      -0.093400
     14 C19          2.1390     1.5440    -2.1550 c3         1 B6Y      -0.096700
     15 C23         -2.9160    -1.4130     1.1880 c6         1 B6Y       0.227000
     16 N03          0.2280    -2.3190    -0.2220 ns         1 B6Y      -0.480900
     17 N10          2.4820    -0.1740    -0.3980 ns         1 B6Y      -0.498900
     18 N15          7.6030     0.5190     0.1950 ns         1 B6Y      -0.524900
     19 O01         -0.1210    -1.3680     1.8110 o          1 B6Y      -0.579000
     20 O18          7.1930    -0.2640    -1.9130 o          1 B6Y      -0.560000
     21 O21          2.6540    -1.5790    -2.1610 o          1 B6Y      -0.605100
     22 O22         -1.7960    -1.6780     0.3160 os         1 B6Y      -0.453100
     23 S1           0.3790     1.6950    -1.6480 s6         1 B6Y       1.282600
     24 H1           1.9430    -2.2620     0.9050 h1         1 B6Y       0.075700
     25 H2           1.9150    -3.9820    -1.6080 hc         1 B6Y       0.056200
     26 H3           3.2070    -3.8890    -0.4290 hc         1 B6Y       0.056200
     27 H4           0.3910    -4.9260     0.0880 hc         1 B6Y       0.052700
     28 H5           3.0540    -6.4120    -0.1060 hc         1 B6Y       0.029867
     29 H6           1.4860    -7.1400     0.2430 hc         1 B6Y       0.029867
     30 H7           1.7920    -6.4170    -1.3360 hc         1 B6Y       0.029867
     31 H8           1.2750    -3.9450     2.1780 hc         1 B6Y       0.029867
     32 H9           1.3130    -5.6990     2.2890 hc         1 B6Y       0.029867
     33 H10          2.8000    -4.8090     1.9660 hc         1 B6Y       0.029867
     34 H11          3.0010     1.7800    -0.2380 h1         1 B6Y       0.070700
     35 H12          4.5140     0.1750    -2.3440 hc         1 B6Y       0.072700
     36 H13          4.8460     1.8140    -1.8070 hc         1 B6Y       0.072700
     37 H14          5.0340    -0.6870    -0.0720 hc         1 B6Y       0.073700
     38 H15          7.3550     1.7690     1.8680 h1         1 B6Y       0.033700
     39 H16          6.8770     0.0880     2.1240 h1         1 B6Y       0.033700
     40 H17          5.4240     2.2540     0.5650 hc         1 B6Y       0.062200
     41 H18          4.7180     1.0170     1.6040 hc         1 B6Y       0.062200
     42 H19          2.1420     0.8480    -3.0040 h2         1 B6Y       0.068700
     43 H23         -0.1970    -2.4880    -1.1210 hn         1 B6Y       0.341500
     44 H24          2.0800    -0.0580     0.5180 hn         1 B6Y       0.332500
     45 H25          8.6030     0.3940     0.1730 hn         1 B6Y       0.312500
     46 O1           0.3890     2.2260    -0.2710 o          1 B6Y      -0.686533
     47 O2          -0.1610     2.6620    -2.6340 o          1 B6Y      -0.686533
     48 O3          -0.2130     0.3530    -1.7790 o          1 B6Y      -0.686533
     49 C1          -2.8530    -0.0140     1.8080 c6         1 B6Y      -0.108900
     50 C2          -2.8770     1.0970     0.7680 c6         1 B6Y       0.100500
     51 N1          -4.0370     0.9600    -0.0970 n          1 B6Y      -0.383800
     52 C4          -4.0750    -0.3200    -0.7850 c6         1 B6Y       0.100500
     53 C5          -4.1050    -1.4650     0.2230 c6         1 B6Y      -0.108900
     54 C3          -5.0950     1.7910     0.0420 c          1 B6Y       0.649100
     55 O4          -5.0910     2.7820     0.7500 o          1 B6Y      -0.564000
     56 O5          -6.1250     1.4040    -0.7080 os         1 B6Y      -0.479100
     57 C10         -3.0230    -2.4830     2.2760 c3         1 B6Y      -0.101400
     58 H22         -3.7250     0.0890     2.4610 hc         1 B6Y       0.054450
     59 H27         -1.9730     0.0880     2.4420 hc         1 B6Y       0.054450
     60 H28         -2.8960     2.0670     1.2570 h1         1 B6Y       0.085200
     61 H29         -1.9770     1.0650     0.1540 h1         1 B6Y       0.085200
     62 H30         -4.9340    -0.3770    -1.4460 h1         1 B6Y       0.085200
     63 H31         -3.1810    -0.3890    -1.4100 h1         1 B6Y       0.085200
     64 H32         -4.1210    -2.4180    -0.3120 hc         1 B6Y       0.054450
     65 H33         -5.0290    -1.4120     0.8060 hc         1 B6Y       0.054450
     66 C6          -7.3400     2.1830    -0.8480 c3         1 B6Y       0.226000
     67 C7          -7.0470     3.5590    -1.4340 c3         1 B6Y      -0.106100
     68 C8          -8.1560     1.3630    -1.8400 c3         1 B6Y      -0.106100
     69 C9          -8.0870     2.2790     0.4770 c3         1 B6Y      -0.106100
     70 H34         -6.4460     3.4770    -2.3410 hc         1 B6Y       0.045144
     71 H35         -7.9880     4.0380    -1.7080 hc         1 B6Y       0.045144
     72 H36         -6.5320     4.2100    -0.7320 hc         1 B6Y       0.045144
     73 H37         -8.3810     0.3710    -1.4450 hc         1 B6Y       0.045144
     74 H38         -9.1020     1.8640    -2.0460 hc         1 B6Y       0.045144
     75 H39         -7.6270     1.2450    -2.7870 hc         1 B6Y       0.045144
     76 H40         -7.5550     2.8790     1.2110 hc         1 B6Y       0.045144
     77 H41         -9.0600     2.7420     0.3070 hc         1 B6Y       0.045144
     78 H42         -8.2650     1.2880     0.8980 hc         1 B6Y       0.045144
     79 C15         -2.9230    -3.9240     1.7900 c3         1 B6Y      -0.082100
     80 H20         -2.2630    -2.3020     3.0380 hc         1 B6Y       0.050700
     81 H43         -3.9870    -2.3360     2.7710 hc         1 B6Y       0.050700
     82 H44         -3.0930    -4.6080     2.6220 hc         1 B6Y       0.030367
     83 H45         -3.6640    -4.1550     1.0250 hc         1 B6Y       0.030367
     84 H46         -1.9390    -4.1580     1.3810 hc         1 B6Y       0.030367
     85 O20          2.6220     2.8060    -2.5030 oh         1 B6Y      -0.658000
     86 H26          2.0320     3.1790    -3.1690 ho         1 B6Y       0.460000
@<TRIPOS>BOND
     1     1    16 1   
     2     1    19 2   
     3     1    22 1   
     4     2     3 1   
     5     2     7 1   
     6     2    16 1   
     7     2    24 1   
     8     3     4 1   
     9     3    25 1   
    10     3    26 1   
    11     4     5 1   
    12     4     6 1   
    13     4    27 1   
    14     5    28 1   
    15     5    29 1   
    16     5    30 1   
    17     6    31 1   
    18     6    32 1   
    19     6    33 1   
    20     7    17 1   
    21     7    21 2   
    22     8     9 1   
    23     8    14 1   
    24     8    17 1   
    25     8    34 1   
    26     9    10 1   
    27     9    35 1   
    28     9    36 1   
    29    10    11 1   
    30    10    13 1   
    31    10    37 1   
    32    11    18 1   
    33    11    20 2   
    34    12    13 1   
    35    12    18 1   
    36    12    38 1   
    37    12    39 1   
    38    13    40 1   
    39    13    41 1   
    40    14    23 1   
    41    14    42 1   
    42    14    85 1   
    43    15    22 1   
    44    15    49 1   
    45    15    53 1   
    46    15    57 1   
    47    16    43 1   
    48    17    44 1   
    49    18    45 1   
    50    23    46 1   
    51    23    47 1   
    52    23    48 1   
    53    49    50 1   
    54    49    58 1   
    55    49    59 1   
    56    50    51 1   
    57    50    60 1   
    58    50    61 1   
    59    51    52 1   
    60    51    54 1   
    61    52    53 1   
    62    52    62 1   
    63    52    63 1   
    64    53    64 1   
    65    53    65 1   
    66    54    55 2   
    67    54    56 1   
    68    56    66 1   
    69    57    79 1   
    70    57    80 1   
    71    57    81 1   
    72    66    67 1   
    73    66    68 1   
    74    66    69 1   
    75    67    70 1   
    76    67    71 1   
    77    67    72 1   
    78    68    73 1   
    79    68    74 1   
    80    68    75 1   
    81    69    76 1   
    82    69    77 1   
    83    69    78 1   
    84    79    82 1   
    85    79    83 1   
    86    79    84 1   
    87    85    86 1   
@<TRIPOS>SUBSTRUCTURE
     1 B6Y         1 TEMP              0 ****  ****    0 ROOT
