@<TRIPOS>MOLECULE
B6Y
   86    87     1     0     0
SMALL
No Charge or Current Charge


@<TRIPOS>ATOM
      1 C02         -0.0630    -2.5490     1.1460 c          1 B6Y       0.669100
      2 C04          1.6640    -2.9100    -0.6580 c3         1 B6Y       0.048700
      3 C05          1.7300    -4.2170    -1.4940 c3         1 B6Y      -0.075400
      4 C06          1.2230    -5.5030    -0.7780 c3         1 B6Y      -0.059700
      5 C07          1.2190    -6.7060    -1.7480 c3         1 B6Y      -0.089100
      6 C08          2.0280    -5.8340     0.5010 c3         1 B6Y      -0.089100
      7 C09          2.2210    -1.6880    -1.4530 c          1 B6Y       0.588100
      8 C11          1.6030     0.6020    -2.3940 c3         1 B6Y       0.155700
      9 C12          2.6010     1.4820    -1.5860 c3         1 B6Y      -0.065400
     10 C13          2.2150     1.7260    -0.0980 c5         1 B6Y      -0.143700
     11 C14          3.1990     2.6330     0.6530 c          1 B6Y       0.561000
     12 C16          1.0280     2.9980     1.5620 c5         1 B6Y       0.099000
     13 C17          0.8550     2.4460     0.1220 c5         1 B6Y      -0.093400
     14 C19          2.0290     0.3710    -3.8800 c3         1 B6Y      -0.096700
     15 C23         -2.1630    -2.1840     2.4230 c6         1 B6Y       0.227000
     16 N03          0.2870    -2.6680    -0.1670 ns         1 B6Y      -0.480900
     17 N10          1.3280    -0.6530    -1.6780 ns         1 B6Y      -0.498900
     18 N15          2.4470     3.3440     1.5490 ns         1 B6Y      -0.524900
     19 O01          0.7160    -2.5610     2.0830 o          1 B6Y      -0.579000
     20 O18          4.3660     2.8930     0.4060 o          1 B6Y      -0.560000
     21 O21          3.3840    -1.6400    -1.8310 o          1 B6Y      -0.605100
     22 O22         -1.4060    -2.3280     1.1980 os         1 B6Y      -0.453100
     23 S1           0.7080    -0.5090    -4.8710 s6         1 B6Y       1.282600
     24 H1           2.3290    -3.0190     0.2070 h1         1 B6Y       0.075700
     25 H2           1.1450    -4.0680    -2.4100 hc         1 B6Y       0.056200
     26 H3           2.7670    -4.3770    -1.8150 hc         1 B6Y       0.056200
     27 H4           0.1800    -5.3390    -0.4760 hc         1 B6Y       0.052700
     28 H5           2.2350    -6.9370    -2.0900 hc         1 B6Y       0.029867
     29 H6           0.8100    -7.5980    -1.2580 hc         1 B6Y       0.029867
     30 H7           0.6000    -6.4930    -2.6290 hc         1 B6Y       0.029867
     31 H8           1.9310    -5.0390     1.2480 hc         1 B6Y       0.029867
     32 H9           1.6620    -6.7620     0.9580 hc         1 B6Y       0.029867
     33 H10          3.0920    -5.9630     0.2700 hc         1 B6Y       0.029867
     34 H11          0.6550     1.1560    -2.4190 h1         1 B6Y       0.070700
     35 H12          3.5960     1.0240    -1.6350 hc         1 B6Y       0.072700
     36 H13          2.6970     2.4550    -2.0840 hc         1 B6Y       0.072700
     37 H14          2.1910     0.7730     0.4440 hc         1 B6Y       0.073700
     38 H15          0.3820     3.8650     1.7520 h1         1 B6Y       0.033700
     39 H16          0.8140     2.2310     2.3180 h1         1 B6Y       0.033700
     40 H17          0.7190     3.2680    -0.5920 hc         1 B6Y       0.062200
     41 H18         -0.0110     1.7810     0.0240 hc         1 B6Y       0.062200
     42 H19          2.8830    -0.3120    -3.9180 h2         1 B6Y       0.068700
     43 H23         -0.4870    -2.7000    -0.8190 hn         1 B6Y       0.341500
     44 H24          0.4000    -0.7840    -1.2990 hn         1 B6Y       0.332500
     45 H25          2.8910     4.0710     2.0970 hn         1 B6Y       0.312500
     46 O1          -0.5350     0.2150    -4.5610 o          1 B6Y      -0.686533
     47 O2           1.1690    -0.3380    -6.2590 o          1 B6Y      -0.686533
     48 O3           0.7360    -1.9000    -4.3950 o          1 B6Y      -0.686533
     49 C1          -1.6500    -1.0280     3.3180 c6         1 B6Y      -0.108900
     50 C2          -1.6140     0.3200     2.5680 c6         1 B6Y       0.100500
     51 N1          -2.8600     0.6710     1.8270 n          1 B6Y      -0.383800
     52 C4          -3.6480    -0.4590     1.2370 c6         1 B6Y       0.100500
     53 C5          -3.6040    -1.7940     2.0240 c6         1 B6Y      -0.108900
     54 C3          -3.0120     1.9870     1.3470 c          1 B6Y       0.649100
     55 O4          -2.2900     2.9060     1.7030 o          1 B6Y      -0.564000
     56 O5          -4.0220     2.0790     0.4200 os         1 B6Y      -0.479100
     57 C10         -2.1270    -3.5510     3.1910 c3         1 B6Y      -0.101400
     58 H22         -2.3100    -0.9250     4.1900 hc         1 B6Y       0.054450
     59 H27         -0.6600    -1.2470     3.7340 hc         1 B6Y       0.054450
     60 H28         -1.3840     1.1150     3.2930 h1         1 B6Y       0.085200
     61 H29         -0.7830     0.2990     1.8490 h1         1 B6Y       0.085200
     62 H30         -4.7020    -0.1610     1.1370 h1         1 B6Y       0.085200
     63 H31         -3.2740    -0.6380     0.2190 h1         1 B6Y       0.085200
     64 H32         -4.0620    -2.5790     1.4100 hc         1 B6Y       0.054450
     65 H33         -4.2290    -1.7050     2.9230 hc         1 B6Y       0.054450
     66 C6          -4.3180     3.2990    -0.2980 c3         1 B6Y       0.226000
     67 C7          -3.0870     3.7130    -1.1470 c3         1 B6Y      -0.106100
     68 C8          -5.4920     2.9160    -1.2260 c3         1 B6Y      -0.106100
     69 C9          -4.7700     4.3980     0.6980 c3         1 B6Y      -0.106100
     70 H34         -2.6930     2.8560    -1.7060 hc         1 B6Y       0.045144
     71 H35         -3.3670     4.4880    -1.8710 hc         1 B6Y       0.045144
     72 H36         -2.2810     4.1240    -0.5300 hc         1 B6Y       0.045144
     73 H37         -6.3560     2.5770    -0.6420 hc         1 B6Y       0.045144
     74 H38         -5.8070     3.7740    -1.8320 hc         1 B6Y       0.045144
     75 H39         -5.2020     2.1070    -1.9080 hc         1 B6Y       0.045144
     76 H40         -3.9320     4.7980     1.2780 hc         1 B6Y       0.045144
     77 H41         -5.2200     5.2400     0.1590 hc         1 B6Y       0.045144
     78 H42         -5.5190     4.0050     1.3970 hc         1 B6Y       0.045144
     79 C15         -2.5140    -4.8110     2.3810 c3         1 B6Y      -0.082100
     80 H20         -1.1270    -3.7150     3.6100 hc         1 B6Y       0.050700
     81 H43         -2.7940    -3.4920     4.0600 hc         1 B6Y       0.050700
     82 H44         -2.4260    -5.7050     3.0100 hc         1 B6Y       0.030367
     83 H45         -3.5490    -4.7540     2.0250 hc         1 B6Y       0.030367
     84 H46         -1.8550    -4.9440     1.5150 hc         1 B6Y       0.030367
     85 O20          2.4280     1.6300    -4.5220 oh         1 B6Y      -0.658000
     86 H26          2.3600     1.4860    -5.4960 ho         1 B6Y       0.460000
@<TRIPOS>BOND
     1     1    16 1   
     2     1    19 2   
     3     1    22 1   
     4     2     3 1   
     5     2     7 1   
     6     2    16 1   
     7     2    24 1   
     8     3     4 1   
     9     3    25 1   
    10     3    26 1   
    11     4     5 1   
    12     4     6 1   
    13     4    27 1   
    14     5    28 1   
    15     5    29 1   
    16     5    30 1   
    17     6    31 1   
    18     6    32 1   
    19     6    33 1   
    20     7    17 1   
    21     7    21 2   
    22     8     9 1   
    23     8    14 1   
    24     8    17 1   
    25     8    34 1   
    26     9    10 1   
    27     9    35 1   
    28     9    36 1   
    29    10    11 1   
    30    10    13 1   
    31    10    37 1   
    32    11    18 1   
    33    11    20 2   
    34    12    13 1   
    35    12    18 1   
    36    12    38 1   
    37    12    39 1   
    38    13    40 1   
    39    13    41 1   
    40    14    23 1   
    41    14    42 1   
    42    14    85 1   
    43    15    22 1   
    44    15    49 1   
    45    15    53 1   
    46    15    57 1   
    47    16    43 1   
    48    17    44 1   
    49    18    45 1   
    50    23    46 1   
    51    23    47 1   
    52    23    48 1   
    53    49    50 1   
    54    49    58 1   
    55    49    59 1   
    56    50    51 1   
    57    50    60 1   
    58    50    61 1   
    59    51    52 1   
    60    51    54 1   
    61    52    53 1   
    62    52    62 1   
    63    52    63 1   
    64    53    64 1   
    65    53    65 1   
    66    54    55 2   
    67    54    56 1   
    68    56    66 1   
    69    57    79 1   
    70    57    80 1   
    71    57    81 1   
    72    66    67 1   
    73    66    68 1   
    74    66    69 1   
    75    67    70 1   
    76    67    71 1   
    77    67    72 1   
    78    68    73 1   
    79    68    74 1   
    80    68    75 1   
    81    69    76 1   
    82    69    77 1   
    83    69    78 1   
    84    79    82 1   
    85    79    83 1   
    86    79    84 1   
    87    85    86 1   
@<TRIPOS>SUBSTRUCTURE
     1 B6Y         1 TEMP              0 ****  ****    0 ROOT
