@<TRIPOS>MOLECULE
B6Z
   55    58     1     0     0
SMALL
bcc


@<TRIPOS>ATOM
      1 CAO         -6.0120    -0.3480    -0.9550 c6         1 B6Z       0.197800
      2 CAM         -7.4720    -0.3470    -0.5470 c6         1 B6Z       0.158300
      3 NBC         -7.9460     1.0050    -0.3450 n3         1 B6Z      -0.715600
      4 CAB         -9.3560     1.0420    -0.0360 c3         1 B6Z       0.153100
      5 CAN         -7.1520     1.6550     0.6750 c6         1 B6Z       0.158300
      6 CAP         -5.6850     1.6840     0.2900 c6         1 B6Z       0.197800
      7 NBD         -5.2000     0.3430     0.0370 nh         1 B6Z      -0.649000
      8 CAX         -3.8200     0.1520    -0.0140 ca         1 B6Z       0.175600
      9 CAL         -3.3050    -1.1530    -0.0910 ca         1 B6Z      -0.233000
     10 CAZ         -1.9450    -1.3890    -0.1070 ca         1 B6Z       0.125100
     11 OAS         -1.3890    -2.6150    -0.1740 os         1 B6Z      -0.344900
     12 CAA         -2.2280    -3.7520    -0.2400 c3         1 B6Z       0.132700
     13 CAJ         -2.9080     1.2030     0.0530 ca         1 B6Z      -0.202000
     14 CAK         -1.5370     0.9660     0.0570 ca         1 B6Z      -0.083000
     15 CAY         -1.0290    -0.3190    -0.0290 ca         1 B6Z       0.092600
     16 NAR          0.3310    -0.6610    -0.0220 nu         1 B6Z      -0.706300
     17 CBA          1.4010     0.1390    -0.0780 cc         1 B6Z       0.777300
     18 SAT          2.9890    -0.5740    -0.0080 ss         1 B6Z      -0.236300
     19 NAQ          1.3660     1.4400    -0.1850 nd         1 B6Z      -0.818000
     20 CAV          2.6150     1.9620    -0.2190 cd         1 B6Z       0.763200
     21 NAC          2.7550     3.2820    -0.3060 nv         1 B6Z      -0.941500
     22 CBB          3.6730     1.0400    -0.1550 cc         1 B6Z      -0.393000
     23 CAU          5.0550     1.3610    -0.1180 c          1 B6Z       0.646300
     24 OAD          5.4600     2.5300    -0.0980 o          1 B6Z      -0.603100
     25 CAW          6.0520     0.2500    -0.0730 ca         1 B6Z      -0.146600
     26 CAH          7.1020     0.3240     0.8420 ca         1 B6Z      -0.093500
     27 CAF          8.0570    -0.6780     0.8940 ca         1 B6Z      -0.138000
     28 CAE          7.9910    -1.7510     0.0130 ca         1 B6Z      -0.116000
     29 CAG          6.9650    -1.8170    -0.9190 ca         1 B6Z      -0.138000
     30 CAI          5.9950    -0.8240    -0.9590 ca         1 B6Z      -0.093500
     31 H1          -5.6880    -1.3820    -1.0590 h1         1 B6Z       0.044950
     32 H3          -8.0580    -0.8200    -1.3390 h1         1 B6Z       0.039700
     33 H6          -9.6130     0.5160     0.8970 h1         1 B6Z       0.032033
     34 H9          -7.4980     2.6830     0.8010 h1         1 B6Z       0.039700
     35 H11         -5.5490     2.3430    -0.5810 h1         1 B6Z       0.044950
     36 H17         -3.2390     2.2300     0.0980 ha         1 B6Z       0.137000
     37 H18         -0.8610     1.8050     0.1090 ha         1 B6Z       0.171000
     38 H19          0.5120    -1.6530     0.0300 hn         1 B6Z       0.468800
     39 H20          1.9450     3.8680    -0.4000 hn         1 B6Z       0.460800
     40 H21          3.6750     3.6860    -0.3410 hn         1 B6Z       0.460800
     41 H22          7.1610     1.1620     1.5250 ha         1 B6Z       0.141000
     42 H23          8.8580    -0.6210     1.6200 ha         1 B6Z       0.130500
     43 H24          8.7420    -2.5300     0.0490 ha         1 B6Z       0.129000
     44 H25          6.9190    -2.6400    -1.6210 ha         1 B6Z       0.130500
     45 H26          5.2140    -0.8770    -1.7080 ha         1 B6Z       0.141000
     46 H2          -5.1260     2.1200     1.1200 h1         1 B6Z       0.044950
     47 H4          -7.2580     1.1550     1.6540 h1         1 B6Z       0.039700
     48 H7          -7.5910    -0.9640     0.3610 h1         1 B6Z       0.039700
     49 H8          -5.9070     0.1260    -1.9420 h1         1 B6Z       0.044950
     50 H5          -9.6900     2.0770     0.0640 h1         1 B6Z       0.032033
     51 H10         -9.9280     0.5850    -0.8440 h1         1 B6Z       0.032033
     52 H12         -3.9890    -1.9900    -0.1050 ha         1 B6Z       0.139000
     53 H13         -2.8650    -3.8370     0.6430 h1         1 B6Z       0.043367
     54 H14         -2.8550    -3.7390    -1.1340 h1         1 B6Z       0.043367
     55 H15         -1.5710    -4.6160    -0.2840 h1         1 B6Z       0.043367
@<TRIPOS>BOND
     1     1     2 1   
     2     1     7 1   
     3     1    31 1   
     4     1    49 1   
     5     2     3 1   
     6     2    32 1   
     7     2    48 1   
     8     3     4 1   
     9     3     5 1   
    10     4    33 1   
    11     4    50 1   
    12     4    51 1   
    13     5     6 1   
    14     5    34 1   
    15     5    47 1   
    16     6     7 1   
    17     6    35 1   
    18     6    46 1   
    19     7     8 1   
    20     8     9 ar  
    21     8    13 ar  
    22     9    10 ar  
    23     9    52 1   
    24    10    11 1   
    25    10    15 ar  
    26    11    12 1   
    27    12    53 1   
    28    12    54 1   
    29    12    55 1   
    30    13    14 ar  
    31    13    36 1   
    32    14    15 ar  
    33    14    37 1   
    34    15    16 1   
    35    16    17 1   
    36    16    38 1   
    37    17    18 1   
    38    17    19 2   
    39    18    22 1   
    40    19    20 1   
    41    20    21 1   
    42    20    22 2   
    43    21    39 1   
    44    21    40 1   
    45    22    23 1   
    46    23    24 2   
    47    23    25 1   
    48    25    26 ar  
    49    25    30 ar  
    50    26    27 ar  
    51    26    41 1   
    52    27    28 ar  
    53    27    42 1   
    54    28    29 ar  
    55    28    43 1   
    56    29    30 ar  
    57    29    44 1   
    58    30    45 1   
@<TRIPOS>SUBSTRUCTURE
     1 B6Z         1 TEMP              0 ****  ****    0 ROOT
