@<TRIPOS>MOLECULE
B6Z
   55    58     1     0     0
SMALL
No Charge or Current Charge


@<TRIPOS>ATOM
      1 CAO         -5.6940    -0.0560    -1.3330 c6         1 B6Z       0.197800
      2 CAM         -7.2420    -0.2700    -1.2610 c6         1 B6Z       0.158300
      3 NBC         -7.9750     0.9460    -0.7930 n3         1 B6Z      -0.715600
      4 CAB         -9.4410     0.7530    -0.7670 c3         1 B6Z       0.153100
      5 CAN         -7.4280     1.3910     0.5250 c6         1 B6Z       0.158300
      6 CAP         -5.8840     1.6390     0.4890 c6         1 B6Z       0.197800
      7 NBD         -5.1230     0.4650    -0.0490 nh         1 B6Z      -0.787400
      8 CAX         -3.7530     0.2840     0.2430 ca         1 B6Z       0.314000
      9 CAL         -3.2140    -1.0120     0.2540 ca         1 B6Z      -0.215000
     10 CAZ         -1.8470    -1.2230     0.5440 ca         1 B6Z       0.125100
     11 OAS         -1.2960    -2.4970     0.5740 os         1 B6Z      -0.368100
     12 CAA         -2.0690    -3.6810     0.3020 c3         1 B6Z       0.155900
     13 CAJ         -2.9160     1.3760     0.5360 ca         1 B6Z      -0.184000
     14 CAK         -1.5550     1.1780     0.8240 ca         1 B6Z      -0.065000
     15 CAY         -1.0020    -0.1170     0.8180 ca         1 B6Z       0.231000
     16 NAR          0.3520    -0.3410     1.1200 nu         1 B6Z      -0.899900
     17 CBA          1.5040     0.3210     0.8290 cc         1 B6Z       0.777300
     18 SAT          3.0840    -0.3180     1.2200 ss         1 B6Z      -0.091400
     19 NAQ          1.4630     1.4640     0.1880 nd         1 B6Z      -0.818000
     20 CAV          2.7330     1.8840    -0.0030 cd         1 B6Z       0.697900
     21 NAC          2.8220     3.0030    -0.6890 nv         1 B6Z      -1.051900
     22 CBB          3.7410     1.1380     0.5160 cc         1 B6Z      -0.472600
     23 CAU          5.1590     1.3970     0.2290 c          1 B6Z       0.646300
     24 OAD          5.5890     2.5440     0.1610 o          1 B6Z      -0.603100
     25 CAW          6.0340     0.2250    -0.1640 ca         1 B6Z      -0.146600
     26 CAH          7.4200     0.2800     0.1030 ca         1 B6Z      -0.075500
     27 CAF          8.2630    -0.7850    -0.2610 ca         1 B6Z      -0.120000
     28 CAE          7.7340    -1.9120    -0.9100 ca         1 B6Z      -0.098000
     29 CAG          6.3620    -1.9680    -1.2030 ca         1 B6Z      -0.120000
     30 CAI          5.5170    -0.9050    -0.8390 ca         1 B6Z      -0.075500
     31 H1          -5.2270    -1.0110    -1.6100 h1         1 B6Z       0.044950
     32 H3          -7.5980    -0.5700    -2.2570 h1         1 B6Z       0.039700
     33 H6          -9.7200    -0.0390    -0.0590 h1         1 B6Z       0.032033
     34 H9          -7.9220     2.3180     0.8490 h1         1 B6Z       0.039700
     35 H11         -5.6860     2.5250    -0.1320 h1         1 B6Z       0.044950
     36 H17         -3.3110     2.3880     0.5340 ha         1 B6Z       0.119000
     37 H18         -0.9320     2.0360     1.0600 ha         1 B6Z       0.153000
     38 H19          0.5530    -1.3120     1.3440 hn         1 B6Z       0.524000
     39 H20          1.9680     3.5450    -0.7030 hn         1 B6Z       0.516000
     40 H21          3.6830     3.5220    -0.5600 hn         1 B6Z       0.516000
     41 H22          7.8450     1.1470     0.6050 ha         1 B6Z       0.123000
     42 H23          9.3270    -0.7350    -0.0410 ha         1 B6Z       0.112500
     43 H24          8.3860    -2.7340    -1.1940 ha         1 B6Z       0.111000
     44 H25          5.9530    -2.8330    -1.7210 ha         1 B6Z       0.112500
     45 H26          4.4650    -0.9580    -1.1090 ha         1 B6Z       0.123000
     46 H2          -5.5500     1.8730     1.5100 h1         1 B6Z       0.044950
     47 H4          -7.6380     0.6320     1.2930 h1         1 B6Z       0.039700
     48 H7          -7.4420    -1.1130    -0.5830 h1         1 B6Z       0.039700
     49 H8          -5.4770     0.6550    -2.1450 h1         1 B6Z       0.044950
     50 H5          -9.9480     1.6790    -0.4640 h1         1 B6Z       0.032033
     51 H10         -9.8130     0.4730    -1.7610 h1         1 B6Z       0.032033
     52 H12         -3.8750    -1.8470     0.0500 ha         1 B6Z       0.121000
     53 H13         -2.8890    -3.7850     1.0230 h1         1 B6Z       0.043367
     54 H14         -2.4910    -3.6470    -0.7110 h1         1 B6Z       0.043367
     55 H15         -1.4360    -4.5730     0.3760 h1         1 B6Z       0.043367
@<TRIPOS>BOND
     1     1     2 1   
     2     1     7 1   
     3     1    31 1   
     4     1    49 1   
     5     2     3 1   
     6     2    32 1   
     7     2    48 1   
     8     3     4 1   
     9     3     5 1   
    10     4    33 1   
    11     4    50 1   
    12     4    51 1   
    13     5     6 1   
    14     5    34 1   
    15     5    47 1   
    16     6     7 1   
    17     6    35 1   
    18     6    46 1   
    19     7     8 1   
    20     8     9 ar  
    21     8    13 ar  
    22     9    10 ar  
    23     9    52 1   
    24    10    11 1   
    25    10    15 ar  
    26    11    12 1   
    27    12    53 1   
    28    12    54 1   
    29    12    55 1   
    30    13    14 ar  
    31    13    36 1   
    32    14    15 ar  
    33    14    37 1   
    34    15    16 1   
    35    16    17 1   
    36    16    38 1   
    37    17    18 1   
    38    17    19 2   
    39    18    22 1   
    40    19    20 1   
    41    20    21 1   
    42    20    22 2   
    43    21    39 1   
    44    21    40 1   
    45    22    23 1   
    46    23    24 2   
    47    23    25 1   
    48    25    26 ar  
    49    25    30 ar  
    50    26    27 ar  
    51    26    41 1   
    52    27    28 ar  
    53    27    42 1   
    54    28    29 ar  
    55    28    43 1   
    56    29    30 ar  
    57    29    44 1   
    58    30    45 1   
@<TRIPOS>SUBSTRUCTURE
     1 B6Z         1 TEMP              0 ****  ****    0 ROOT
