@<TRIPOS>MOLECULE
B71
   55    55     1     0     0
SMALL
bcc


@<TRIPOS>ATOM
      1 CAA          3.0740    -4.8910    -1.2180 c3         1 B71      -0.086100
      2 CAL          2.4490    -5.1700    -2.5780 c3         1 B71      -0.077400
      3 CAM          0.9610    -4.8430    -2.6250 c3         1 B71      -0.074400
      4 CAN          0.3290    -5.1090    -3.9850 c3         1 B71      -0.077400
      5 CAO         -1.1560    -4.7710    -4.0390 c3         1 B71      -0.071400
      6 CAP         -1.7810    -5.0320    -5.4030 c3         1 B71      -0.079400
      7 CAQ         -3.2600    -4.6760    -5.4690 c3         1 B71      -0.068400
      8 CAR         -3.8740    -4.9420    -6.8380 c3         1 B71      -0.081400
      9 CAS         -5.3470    -4.5580    -6.9130 c3         1 B71      -0.067400
     10 CAT         -5.9170    -4.8510    -8.2830 c3         1 B71       0.117400
     11 OAV         -7.2910    -4.4480    -8.2890 os         1 B71      -0.355900
     12 CAW         -7.9180    -4.3730    -9.4650 ca         1 B71       0.131100
     13 CAK         -7.3630    -4.8630   -10.6450 ca         1 B71      -0.073300
     14 CAI         -9.1690    -3.7750    -9.5120 ca         1 B71      -0.189000
     15 CAH         -9.8150    -3.6510   -10.7340 ca         1 B71      -0.185000
     16 CAJ         -9.2140    -4.1290   -11.8720 ca         1 B71      -0.104300
     17 NAY         -8.0220    -4.7350   -11.7960 na         1 B71       0.098900
     18 CAU         -7.3460    -5.1600   -13.0470 c3         1 B71       0.045300
     19 CAX         -6.3390    -4.1450   -13.5610 c3         1 B71      -0.299100
     20 PBA         -4.9340    -3.9110   -12.3430 p5         1 B71       1.152200
     21 OAF         -4.6260    -5.3230   -11.7990 o          1 B71      -0.913333
     22 OAG         -3.7610    -3.2610   -13.0740 o          1 B71      -0.913333
     23 OAC         -5.5320    -2.9940   -11.2510 o          1 B71      -0.913333
     24 PAZ         -5.8850    -4.6560   -15.3070 p5         1 B71       1.152200
     25 OAD         -7.2440    -4.9740   -15.9690 o          1 B71      -0.913333
     26 OAE         -4.9970    -5.9000   -15.1740 o          1 B71      -0.913333
     27 OAB         -5.1990    -3.4480   -15.9520 o          1 B71      -0.913333
     28 HAA1         2.5930    -5.4800    -0.4340 hc         1 B71       0.023367
     29 HAA2         2.9720    -3.8380    -0.9460 hc         1 B71       0.023367
     30 HAA3         4.1370    -5.1320    -1.2060 hc         1 B71       0.023367
     31 HAL1         2.9690    -4.5900    -3.3470 hc         1 B71       0.038200
     32 HAL2         2.5960    -6.2210    -2.8420 hc         1 B71       0.038200
     33 HAM1         0.4380    -5.4260    -1.8590 hc         1 B71       0.030700
     34 HAM2         0.8150    -3.7910    -2.3560 hc         1 B71       0.030700
     35 HAN1         0.4700    -6.1630    -4.2520 hc         1 B71       0.040700
     36 HAN2         0.8580    -4.5310    -4.7510 hc         1 B71       0.040700
     37 HAO1        -1.6880    -5.3500    -3.2760 hc         1 B71       0.026700
     38 HAO2        -1.2960    -3.7180    -3.7700 hc         1 B71       0.026700
     39 HAP1        -1.6490    -6.0870    -5.6670 hc         1 B71       0.046700
     40 HAP2        -1.2390    -4.4610    -6.1660 hc         1 B71       0.046700
     41 HAQ1        -3.3910    -3.6200    -5.2110 hc         1 B71       0.021700
     42 HAQ2        -3.8060    -5.2440    -4.7080 hc         1 B71       0.021700
     43 HAR1        -3.7580    -6.0030    -7.0860 hc         1 B71       0.062700
     44 HAR2        -3.3160    -4.3890    -7.6000 hc         1 B71       0.062700
     45 HAS1        -5.9100    -5.1060    -6.1510 hc         1 B71       0.024700
     46 HAS2        -5.4590    -3.4930    -6.6900 hc         1 B71       0.024700
     47 HAT1        -5.8460    -5.9220    -8.5020 h1         1 B71       0.094700
     48 HAT2        -5.3770    -4.3090    -9.0660 h1         1 B71       0.094700
     49 HAK         -6.4000    -5.3620   -10.7130 h4         1 B71       0.267000
     50 HAI         -9.6240    -3.3970    -8.6060 ha         1 B71       0.106000
     51 HAH        -10.7830    -3.1770   -10.8030 ha         1 B71       0.105000
     52 HAJ         -9.6600    -4.0490   -12.8520 h4         1 B71       0.171000
     53 HAU1        -8.1330    -5.3300   -13.7780 h1         1 B71       0.071200
     54 HAU2        -6.8560    -6.1080   -12.8370 h1         1 B71       0.071200
     55 HAX         -6.8610    -3.1830   -13.6560 hc         1 B71       0.034700
@<TRIPOS>BOND
     1     1     2 1   
     2     1    28 1   
     3     1    29 1   
     4     1    30 1   
     5     2     3 1   
     6     2    31 1   
     7     2    32 1   
     8     3     4 1   
     9     3    33 1   
    10     3    34 1   
    11     4     5 1   
    12     4    35 1   
    13     4    36 1   
    14     5     6 1   
    15     5    37 1   
    16     5    38 1   
    17     6     7 1   
    18     6    39 1   
    19     6    40 1   
    20     7     8 1   
    21     7    41 1   
    22     7    42 1   
    23     8     9 1   
    24     8    43 1   
    25     8    44 1   
    26     9    10 1   
    27     9    45 1   
    28     9    46 1   
    29    10    11 1   
    30    10    47 1   
    31    10    48 1   
    32    11    12 1   
    33    12    13 ar  
    34    12    14 ar  
    35    13    17 2   
    36    13    49 1   
    37    14    15 ar  
    38    14    50 1   
    39    15    16 ar  
    40    15    51 1   
    41    16    17 1   
    42    16    52 1   
    43    17    18 1   
    44    18    19 1   
    45    18    53 1   
    46    18    54 1   
    47    19    20 1   
    48    19    24 1   
    49    19    55 1   
    50    20    21 1   
    51    20    22 1   
    52    20    23 1   
    53    24    25 1   
    54    24    26 1   
    55    24    27 1   
@<TRIPOS>SUBSTRUCTURE
     1 B71         1 TEMP              0 ****  ****    0 ROOT
