@<TRIPOS>MOLECULE
B71
   55    55     1     0     0
SMALL
No Charge or Current Charge


@<TRIPOS>ATOM
      1 CAA          3.0130    -5.2480    -0.5170 c3         1 B71      -0.086100
      2 CAL          2.5040    -5.3900    -1.9640 c3         1 B71      -0.077400
      3 CAM          1.0100    -5.0300    -2.1180 c3         1 B71      -0.074400
      4 CAN          0.5000    -5.1720    -3.5690 c3         1 B71      -0.077400
      5 CAO         -0.9940    -4.8120    -3.7220 c3         1 B71      -0.071400
      6 CAP         -1.5040    -4.9540    -5.1730 c3         1 B71      -0.079400
      7 CAQ         -2.9990    -4.5950    -5.3260 c3         1 B71      -0.068400
      8 CAR         -3.5100    -4.7370    -6.7760 c3         1 B71      -0.081400
      9 CAS         -5.0050    -4.3770    -6.9270 c3         1 B71      -0.067400
     10 CAT         -5.5190    -4.5200    -8.3750 c3         1 B71       0.140600
     11 OAV         -6.9150    -4.1620    -8.3770 os         1 B71      -0.379100
     12 CAW         -7.6810    -4.1860    -9.5260 ca         1 B71       0.131100
     13 CAK         -7.1620    -4.5720   -10.7820 ca         1 B71      -0.055300
     14 CAI         -9.0290    -3.8030    -9.4250 ca         1 B71      -0.171000
     15 CAH         -9.8440    -3.7890   -10.5700 ca         1 B71      -0.167000
     16 CAJ         -9.3050    -4.1740   -11.8090 ca         1 B71      -0.137000
     17 NAY         -7.9750    -4.5950   -11.9190 na         1 B71       0.120300
     18 CAU         -7.5050    -5.2350   -13.1670 c3         1 B71       0.074600
     19 CAX         -7.0110    -4.2600   -14.2680 c3         1 B71      -0.614700
     20 PBA         -5.5340    -3.3540   -13.7920 p5         1 B71       1.310000
     21 OAF         -4.6380    -4.2530   -13.0100 o          1 B71      -0.913333
     22 OAG         -4.8090    -2.7280   -14.9320 o          1 B71      -0.913333
     23 OAC         -6.0080    -2.2790   -12.8740 o          1 B71      -0.913333
     24 PAZ         -6.6340    -5.1400   -15.7850 p5         1 B71       1.310000
     25 OAD         -7.7680    -6.0840   -16.0060 o          1 B71      -0.913333
     26 OAE         -5.3680    -5.9200   -15.6910 o          1 B71      -0.913333
     27 OAB         -6.6170    -4.1940   -16.9370 o          1 B71      -0.913333
     28 HAA1         2.4560    -5.9100     0.1570 hc         1 B71       0.023367
     29 HAA2         2.8970    -4.2160    -0.1640 hc         1 B71       0.023367
     30 HAA3         4.0760    -5.5130    -0.4580 hc         1 B71       0.023367
     31 HAL1         3.1030    -4.7430    -2.6170 hc         1 B71       0.038200
     32 HAL2         2.6660    -6.4220    -2.2990 hc         1 B71       0.038200
     33 HAM1         0.4150    -5.6770    -1.4620 hc         1 B71       0.030700
     34 HAM2         0.8520    -3.9980    -1.7800 hc         1 B71       0.030700
     35 HAN1         0.6580    -6.2040    -3.9070 hc         1 B71       0.040700
     36 HAN2         1.0960    -4.5250    -4.2250 hc         1 B71       0.040700
     37 HAO1        -1.5890    -5.4590    -3.0660 hc         1 B71       0.026700
     38 HAO2        -1.1520    -3.7800    -3.3840 hc         1 B71       0.026700
     39 HAP1        -1.3460    -5.9860    -5.5110 hc         1 B71       0.046700
     40 HAP2        -0.9090    -4.3070    -5.8290 hc         1 B71       0.046700
     41 HAQ1        -3.1570    -3.5630    -4.9880 hc         1 B71       0.021700
     42 HAQ2        -3.5930    -5.2420    -4.6690 hc         1 B71       0.021700
     43 HAR1        -3.3510    -5.7690    -7.1140 hc         1 B71       0.062700
     44 HAR2        -2.9150    -4.0900    -7.4330 hc         1 B71       0.062700
     45 HAS1        -5.5990    -5.0260    -6.2700 hc         1 B71       0.024700
     46 HAS2        -5.1630    -3.3450    -6.5910 hc         1 B71       0.024700
     47 HAT1        -5.3790    -5.5570    -8.7110 h1         1 B71       0.094700
     48 HAT2        -4.9420    -3.8570    -9.0340 h1         1 B71       0.094700
     49 HAK         -6.1210    -4.8510   -10.9230 h4         1 B71       0.249000
     50 HAI         -9.4370    -3.5050    -8.4630 ha         1 B71       0.088000
     51 HAH        -10.8840    -3.4790   -10.4980 ha         1 B71       0.087000
     52 HAJ         -9.9060    -4.1670   -12.7190 h4         1 B71       0.153000
     53 HAU1        -8.3440    -5.8290   -13.5530 h1         1 B71       0.071200
     54 HAU2        -6.7090    -5.9500   -12.9210 h1         1 B71       0.071200
     55 HAX         -7.7960    -3.5360   -14.5020 hc         1 B71       0.034700
@<TRIPOS>BOND
     1     1     2 1   
     2     1    28 1   
     3     1    29 1   
     4     1    30 1   
     5     2     3 1   
     6     2    31 1   
     7     2    32 1   
     8     3     4 1   
     9     3    33 1   
    10     3    34 1   
    11     4     5 1   
    12     4    35 1   
    13     4    36 1   
    14     5     6 1   
    15     5    37 1   
    16     5    38 1   
    17     6     7 1   
    18     6    39 1   
    19     6    40 1   
    20     7     8 1   
    21     7    41 1   
    22     7    42 1   
    23     8     9 1   
    24     8    43 1   
    25     8    44 1   
    26     9    10 1   
    27     9    45 1   
    28     9    46 1   
    29    10    11 1   
    30    10    47 1   
    31    10    48 1   
    32    11    12 1   
    33    12    13 ar  
    34    12    14 ar  
    35    13    17 2   
    36    13    49 1   
    37    14    15 ar  
    38    14    50 1   
    39    15    16 ar  
    40    15    51 1   
    41    16    17 1   
    42    16    52 1   
    43    17    18 1   
    44    18    19 1   
    45    18    53 1   
    46    18    54 1   
    47    19    20 1   
    48    19    24 1   
    49    19    55 1   
    50    20    21 1   
    51    20    22 1   
    52    20    23 1   
    53    24    25 1   
    54    24    26 1   
    55    24    27 1   
@<TRIPOS>SUBSTRUCTURE
     1 B71         1 TEMP              0 ****  ****    0 ROOT
