@<TRIPOS>MOLECULE
B72
   47    48     1     0     0
SMALL
No Charge or Current Charge


@<TRIPOS>ATOM
      1 O1          -7.6390     1.2190    -0.6960 o          1 B72      -0.713000
      2 C20         -6.7450     0.3850    -0.6290 c          1 B72       0.728000
      3 O2          -6.9060    -0.7890    -0.9390 o          1 B72      -0.713000
      4 C19         -5.3520     0.8650    -0.1240 c3         1 B72       0.001600
      5 O3          -4.3640    -0.1950    -0.0810 os         1 B72      -0.293100
      6 C1          -3.0660     0.0220     0.3380 ca         1 B72       0.179100
      7 C2          -2.1900    -1.0690     0.3410 ca         1 B72      -0.190500
      8 C3          -0.8540    -0.9250     0.7560 ca         1 B72      -0.037300
      9 C17          0.0490    -2.1590     0.7290 c3         1 B72      -0.044300
     10 C4          -0.3790     0.3460     1.1790 ca         1 B72      -0.152300
     11 C5          -1.2690     1.4560     1.1740 ca         1 B72      -0.037300
     12 C6          -2.6030     1.2820     0.7550 ca         1 B72      -0.190500
     13 C18         -0.8310     2.8530     1.6120 c3         1 B72      -0.044300
     14 C7           1.0860     0.5040     1.6280 c3         1 B72       0.033200
     15 C8           2.0720     0.4520     0.4610 ca         1 B72      -0.094300
     16 C13          3.2200    -0.3600     0.5430 ca         1 B72      -0.078000
     17 C12          4.1440    -0.4350    -0.5240 ca         1 B72      -0.167300
     18 C14          5.3750    -1.3490    -0.3820 c3         1 B72      -0.007400
     19 C16          6.2860    -0.8930     0.7800 c3         1 B72      -0.086100
     20 C15          4.9610    -2.8300    -0.2320 c3         1 B72      -0.086100
     21 C11          3.8960     0.3350    -1.6870 ca         1 B72       0.128100
     22 O4           4.7470     0.3090    -2.7520 oh         1 B72      -0.548100
     23 C10          2.7560     1.1480    -1.7680 ca         1 B72      -0.145000
     24 C9           1.8460     1.2080    -0.7020 ca         1 B72      -0.062000
     25 H119        -5.0150     1.6670    -0.7930 h1         1 B72       0.016700
     26 H219        -5.4910     1.2900     0.8780 h1         1 B72       0.016700
     27 H2          -2.5590    -2.0370     0.0150 ha         1 B72       0.124000
     28 H117         0.8620    -2.0390     0.0040 hc         1 B72       0.033367
     29 H217         0.4920    -2.3540     1.7120 hc         1 B72       0.033367
     30 H317        -0.5050    -3.0610     0.4430 hc         1 B72       0.033367
     31 H6          -3.2700     2.1390     0.7590 ha         1 B72       0.124000
     32 H118         0.0550     3.1870     1.0610 hc         1 B72       0.033367
     33 H218        -1.6140     3.6010     1.4400 hc         1 B72       0.033367
     34 H318        -0.5950     2.8730     2.6830 hc         1 B72       0.033367
     35 H17          1.2500     1.4330     2.1820 hc         1 B72       0.041700
     36 H27          1.3250    -0.2770     2.3590 hc         1 B72       0.041700
     37 H13          3.3910    -0.9430     1.4450 ha         1 B72       0.105000
     38 H14          5.9940    -1.3000    -1.2850 hc         1 B72       0.030700
     39 H116         5.7770    -0.9850     1.7460 hc         1 B72       0.034367
     40 H216         7.1980    -1.5020     0.8170 hc         1 B72       0.034367
     41 H316         6.5830     0.1540     0.6460 hc         1 B72       0.034367
     42 H115         4.3300    -3.1390    -1.0740 hc         1 B72       0.034367
     43 H215         5.8450    -3.4780    -0.2140 hc         1 B72       0.034367
     44 H315         4.4000    -2.9950     0.6960 hc         1 B72       0.034367
     45 HO4          5.4830    -0.3000    -2.5350 ho         1 B72       0.458000
     46 H10          2.5730     1.7340    -2.6650 ha         1 B72       0.124000
     47 H9           0.9640     1.8400    -0.7860 ha         1 B72       0.129000
@<TRIPOS>BOND
     1     1     2 1   
     2     2     3 1   
     3     2     4 1   
     4     4     5 1   
     5     4    25 1   
     6     4    26 1   
     7     5     6 1   
     8     6     7 ar  
     9     6    12 ar  
    10     7     8 ar  
    11     7    27 1   
    12     8     9 1   
    13     8    10 ar  
    14     9    28 1   
    15     9    29 1   
    16     9    30 1   
    17    10    11 ar  
    18    10    14 1   
    19    11    12 ar  
    20    11    13 1   
    21    12    31 1   
    22    13    32 1   
    23    13    33 1   
    24    13    34 1   
    25    14    15 1   
    26    14    35 1   
    27    14    36 1   
    28    15    16 ar  
    29    15    24 ar  
    30    16    17 ar  
    31    16    37 1   
    32    17    18 1   
    33    17    21 ar  
    34    18    19 1   
    35    18    20 1   
    36    18    38 1   
    37    19    39 1   
    38    19    40 1   
    39    19    41 1   
    40    20    42 1   
    41    20    43 1   
    42    20    44 1   
    43    21    22 1   
    44    21    23 ar  
    45    22    45 1   
    46    23    24 ar  
    47    23    46 1   
    48    24    47 1   
@<TRIPOS>SUBSTRUCTURE
     1 B72         1 TEMP              0 ****  ****    0 ROOT
