@<TRIPOS>MOLECULE
B72
   47    48     1     0     0
SMALL
bcc


@<TRIPOS>ATOM
      1 O1          -7.5000     1.4910    -0.6600 o          1 B72      -0.818300
      2 C20         -6.6650     0.5650    -0.6750 c          1 B72       0.938600
      3 O2          -6.8230    -0.5980    -1.0730 o          1 B72      -0.818300
      4 C19         -5.2870     0.9700    -0.1260 c3         1 B72      -0.021600
      5 O3          -4.3980    -0.1280    -0.1500 os         1 B72      -0.269900
      6 C1          -3.1350     0.0480     0.2790 ca         1 B72       0.179100
      7 C2          -2.3100    -1.0750     0.2410 ca         1 B72      -0.208500
      8 C3          -0.9900    -1.0090     0.6580 ca         1 B72      -0.037300
      9 C17         -0.1430    -2.2480     0.5990 c3         1 B72      -0.044300
     10 C4          -0.4620     0.2050     1.1300 ca         1 B72      -0.152300
     11 C5          -1.2870     1.3310     1.1710 ca         1 B72      -0.037300
     12 C6          -2.6150     1.2480     0.7480 ca         1 B72      -0.208500
     13 C18         -0.7830     2.6590     1.6720 c3         1 B72      -0.044300
     14 C7           0.9760     0.2660     1.5830 c3         1 B72       0.033200
     15 C8           1.9860     0.3010     0.4570 ca         1 B72      -0.094300
     16 C13          3.1080    -0.5180     0.4920 ca         1 B72      -0.096000
     17 C12          4.0890    -0.5100    -0.4970 ca         1 B72      -0.167300
     18 C14          5.3230    -1.3820    -0.3860 c3         1 B72      -0.007400
     19 C16          6.4610    -0.6090     0.2860 c3         1 B72      -0.086100
     20 C15          5.0750    -2.7020     0.3380 c3         1 B72      -0.086100
     21 C11          3.9220     0.3750    -1.5680 ca         1 B72       0.128100
     22 O4           4.8120     0.4920    -2.5830 oh         1 B72      -0.509100
     23 C10          2.8000     1.1980    -1.6290 ca         1 B72      -0.163000
     24 C9           1.8450     1.1600    -0.6280 ca         1 B72      -0.080000
     25 H119        -4.8960     1.8000    -0.7280 h1         1 B72       0.016700
     26 H219        -5.4060     1.3500     0.8970 h1         1 B72       0.016700
     27 H2          -2.7150    -2.0140    -0.1200 ha         1 B72       0.142000
     28 H117         0.6950    -2.1290    -0.0890 hc         1 B72       0.033367
     29 H217         0.2820    -2.4950     1.5740 hc         1 B72       0.033367
     30 H317        -0.7250    -3.1070     0.2660 hc         1 B72       0.033367
     31 H6          -3.2290     2.1380     0.7950 ha         1 B72       0.142000
     32 H118         0.0740     3.0130     1.0980 hc         1 B72       0.033367
     33 H218        -1.5580     3.4200     1.6020 hc         1 B72       0.033367
     34 H318        -0.4680     2.6070     2.7160 hc         1 B72       0.033367
     35 H17          1.1290     1.1370     2.2240 hc         1 B72       0.041700
     36 H27          1.1960    -0.5930     2.2210 hc         1 B72       0.041700
     37 H13          3.2170    -1.1980     1.3280 ha         1 B72       0.123000
     38 H14          5.6560    -1.6620    -1.3940 hc         1 B72       0.030700
     39 H116         6.1840    -0.3380     1.3060 hc         1 B72       0.034367
     40 H216         7.3680    -1.2140     0.3330 hc         1 B72       0.034367
     41 H316         6.7040     0.3120    -0.2470 hc         1 B72       0.034367
     42 H115         4.2450    -3.2540    -0.1020 hc         1 B72       0.034367
     43 H215         5.9650    -3.3290     0.2770 hc         1 B72       0.034367
     44 H315         4.8590    -2.5540     1.3980 hc         1 B72       0.034367
     45 HO4          5.4750    -0.2050    -2.5430 ho         1 B72       0.419000
     46 H10          2.6820     1.8690    -2.4710 ha         1 B72       0.142000
     47 H9           0.9780     1.8060    -0.7060 ha         1 B72       0.147000
@<TRIPOS>BOND
     1     1     2 1   
     2     2     3 1   
     3     2     4 1   
     4     4     5 1   
     5     4    25 1   
     6     4    26 1   
     7     5     6 1   
     8     6     7 ar  
     9     6    12 ar  
    10     7     8 ar  
    11     7    27 1   
    12     8     9 1   
    13     8    10 ar  
    14     9    28 1   
    15     9    29 1   
    16     9    30 1   
    17    10    11 ar  
    18    10    14 1   
    19    11    12 ar  
    20    11    13 1   
    21    12    31 1   
    22    13    32 1   
    23    13    33 1   
    24    13    34 1   
    25    14    15 1   
    26    14    35 1   
    27    14    36 1   
    28    15    16 ar  
    29    15    24 ar  
    30    16    17 ar  
    31    16    37 1   
    32    17    18 1   
    33    17    21 ar  
    34    18    19 1   
    35    18    20 1   
    36    18    38 1   
    37    19    39 1   
    38    19    40 1   
    39    19    41 1   
    40    20    42 1   
    41    20    43 1   
    42    20    44 1   
    43    21    22 1   
    44    21    23 ar  
    45    22    45 1   
    46    23    24 ar  
    47    23    46 1   
    48    24    47 1   
@<TRIPOS>SUBSTRUCTURE
     1 B72         1 TEMP              0 ****  ****    0 ROOT
