@<TRIPOS>MOLECULE
B73
   58    58     1     0     0
SMALL
No Charge or Current Charge


@<TRIPOS>ATOM
      1 CAA         14.2050    -1.2580    -0.4120 c3         1 B73      -0.087100
      2 OAB         -7.2920     0.8860     1.0890 o          1 B73      -0.938000
      3 OAC         -7.2060    -1.6690    -1.0460 o          1 B73      -0.938000
      4 OAD         -6.1630     1.4340    -1.0230 o          1 B73      -0.938000
      5 OAE         -5.0940     1.8960     1.0820 o          1 B73      -0.938000
      6 OAF         -7.0520    -2.1790     1.3630 o          1 B73      -0.938000
      7 OAG         -5.5070    -3.1660    -0.1820 o          1 B73      -0.938000
      8 CAH         -1.5600     2.0190    -0.9840 cc         1 B73      -0.277000
      9 CAI         -2.7660     1.4480    -1.3520 cd         1 B73      -0.071000
     10 CAJ         -1.8220     0.1270     0.2130 cc         1 B73      -0.139300
     11 CAK         13.0250    -0.6090     0.3370 c3         1 B73      -0.075400
     12 CAL         11.6640    -0.8510    -0.3520 c3         1 B73      -0.076400
     13 CAM         10.4820    -0.2000     0.3990 c3         1 B73      -0.074400
     14 CAN          9.1210    -0.4420    -0.2900 c3         1 B73      -0.075400
     15 CAO          7.9390     0.2080     0.4610 c3         1 B73      -0.073400
     16 CAP          6.5780    -0.0340    -0.2280 c3         1 B73      -0.075400
     17 CAQ          5.3960     0.6160     0.5230 c3         1 B73      -0.073400
     18 CAR          4.0350     0.3740    -0.1660 c3         1 B73      -0.076400
     19 CAS          2.8530     1.0240     0.5850 c3         1 B73      -0.072400
     20 CAT          1.4930     0.7820    -0.1050 c3         1 B73      -0.104400
     21 CAU          0.3130     1.4320     0.6470 c3         1 B73       0.081600
     22 CAV         -4.0080    -0.6680    -0.7620 c3         1 B73       0.085600
     23 CAW         -5.0930    -0.6230     0.3450 c3         1 B73      -0.616700
     24 NAX         -0.9800     1.2010    -0.0140 na         1 B73      -0.046700
     25 NAY         -2.8990     0.2950    -0.6130 na         1 B73       0.175000
     26 PAZ         -5.9870     0.9370     0.3720 p5         1 B73       1.322500
     27 PBA         -6.2930    -1.9310     0.1030 p5         1 B73       1.322500
     28 HAA         15.1460    -1.0600     0.1130 hc         1 B73       0.028033
     29 HAAA        14.0710    -2.3440    -0.4800 hc         1 B73       0.028033
     30 HAAB        14.2880    -0.8550    -1.4290 hc         1 B73       0.028033
     31 HAH         -1.0840     2.9290    -1.3300 h4         1 B73       0.130000
     32 HAI         -3.5200     1.7710    -2.0620 h4         1 B73       0.244000
     33 HAJ         -1.6590    -0.6970     0.8960 h5         1 B73       0.185000
     34 HAK         12.9900    -1.0060     1.3590 hc         1 B73       0.035200
     35 HAKA        13.2050     0.4700     0.4190 hc         1 B73       0.035200
     36 HAL         11.7030    -0.4540    -1.3750 hc         1 B73       0.036700
     37 HALA        11.4890    -1.9310    -0.4340 hc         1 B73       0.036700
     38 HAM         10.4430    -0.5970     1.4210 hc         1 B73       0.035700
     39 HAMA        10.6570     0.8800     0.4810 hc         1 B73       0.035700
     40 HAN          9.1600    -0.0450    -1.3130 hc         1 B73       0.036700
     41 HANA         8.9460    -1.5220    -0.3720 hc         1 B73       0.036700
     42 HAO          7.9000    -0.1890     1.4830 hc         1 B73       0.035200
     43 HAOA         8.1140     1.2880     0.5430 hc         1 B73       0.035200
     44 HAP          6.6170     0.3630    -1.2510 hc         1 B73       0.037700
     45 HAPA         6.4030    -1.1140    -0.3100 hc         1 B73       0.037700
     46 HAQ          5.3570     0.2190     1.5450 hc         1 B73       0.034200
     47 HAQA         5.5710     1.6960     0.6050 hc         1 B73       0.034200
     48 HAR          4.0740     0.7710    -1.1890 hc         1 B73       0.039700
     49 HARA         3.8600    -0.7060    -0.2480 hc         1 B73       0.039700
     50 HAS          2.8140     0.6270     1.6070 hc         1 B73       0.034200
     51 HASA         3.0280     2.1040     0.6670 hc         1 B73       0.034200
     52 HAT          1.5290     1.1800    -1.1270 hc         1 B73       0.052700
     53 HATA         1.3140    -0.2980    -0.1860 hc         1 B73       0.052700
     54 HAU          0.2620     1.0290     1.6670 h1         1 B73       0.052700
     55 HAUA         0.4790     2.5140     0.7210 h1         1 B73       0.052700
     56 HAV         -3.5510    -1.6650    -0.7850 h1         1 B73       0.064200
     57 HAVA        -4.4740    -0.5130    -1.7440 h1         1 B73       0.064200
     58 HAW         -4.6300    -0.7760     1.3240 hc         1 B73       0.024700
@<TRIPOS>BOND
     1     1    11 1   
     2     1    28 1   
     3     1    29 1   
     4     1    30 1   
     5     2    26 1   
     6     3    27 1   
     7     4    26 1   
     8     5    26 1   
     9     6    27 1   
    10     7    27 1   
    11     8     9 2   
    12     8    24 1   
    13     8    31 1   
    14     9    25 1   
    15     9    32 1   
    16    10    24 2   
    17    10    25 1   
    18    10    33 1   
    19    11    12 1   
    20    11    34 1   
    21    11    35 1   
    22    12    13 1   
    23    12    36 1   
    24    12    37 1   
    25    13    14 1   
    26    13    38 1   
    27    13    39 1   
    28    14    15 1   
    29    14    40 1   
    30    14    41 1   
    31    15    16 1   
    32    15    42 1   
    33    15    43 1   
    34    16    17 1   
    35    16    44 1   
    36    16    45 1   
    37    17    18 1   
    38    17    46 1   
    39    17    47 1   
    40    18    19 1   
    41    18    48 1   
    42    18    49 1   
    43    19    20 1   
    44    19    50 1   
    45    19    51 1   
    46    20    21 1   
    47    20    52 1   
    48    20    53 1   
    49    21    24 1   
    50    21    54 1   
    51    21    55 1   
    52    22    23 1   
    53    22    25 1   
    54    22    56 1   
    55    22    57 1   
    56    23    26 1   
    57    23    27 1   
    58    23    58 1   
@<TRIPOS>SUBSTRUCTURE
     1 B73         1 TEMP              0 ****  ****    0 ROOT
