@<TRIPOS>MOLECULE
B73
   58    58     1     0     0
SMALL
abcg2


@<TRIPOS>ATOM
      1 CAA         13.7250    -1.8940    -0.2530 c3         1 B73      -0.087100
      2 OAB         -6.8830     0.4540     1.2410 o          1 B73      -0.938000
      3 OAC         -6.5160    -2.3470    -1.0350 o          1 B73      -0.938000
      4 OAD         -5.8560     1.0570    -1.0400 o          1 B73      -0.938000
      5 OAE         -4.6370     1.6640     1.1310 o          1 B73      -0.938000
      6 OAF         -6.3600    -2.7580     1.5060 o          1 B73      -0.938000
      7 OAG         -4.5130    -3.5870    -0.0470 o          1 B73      -0.938000
      8 CAH         -1.7400     2.2070    -0.8500 cc         1 B73      -0.277000
      9 CAI         -2.8110     1.4630    -1.2210 cd         1 B73      -0.071000
     10 CAJ         -1.5750     0.2430     0.1020 cc         1 B73      -0.139300
     11 CAK         12.6250    -1.1610     0.5020 c3         1 B73      -0.075400
     12 CAL         11.3390    -1.0340    -0.3050 c3         1 B73      -0.076400
     13 CAM         10.2240    -0.3080     0.4370 c3         1 B73      -0.074400
     14 CAN          8.9210    -0.2500    -0.3500 c3         1 B73      -0.075400
     15 CAO          7.7920     0.4560     0.3890 c3         1 B73      -0.073400
     16 CAP          6.4630     0.3880    -0.3540 c3         1 B73      -0.075400
     17 CAQ          5.3160     1.0720     0.3780 c3         1 B73      -0.073400
     18 CAR          3.9700     0.8540    -0.3020 c3         1 B73      -0.076400
     19 CAS          2.8070     1.5140     0.4270 c3         1 B73      -0.072400
     20 CAT          1.4610     1.1580    -0.1910 c3         1 B73      -0.104400
     21 CAU          0.3020     1.7800     0.5730 c3         1 B73       0.081600
     22 CAV         -3.6140    -0.8870    -0.7180 c3         1 B73       0.085600
     23 CAW         -4.6520    -0.9270     0.3860 c3         1 B73      -0.616700
     24 NAX         -0.9860     1.4270    -0.0100 na         1 B73      -0.046700
     25 NAY         -2.6720     0.2390    -0.6330 na         1 B73       0.175000
     26 PAZ         -5.6010     0.6810     0.4340 p5         1 B73       1.322500
     27 PBA         -5.6100    -2.5220     0.1900 p5         1 B73       1.322500
     28 HAA         14.6330    -1.9840     0.3440 hc         1 B73       0.028033
     29 HAAA        13.4090    -2.9020    -0.5280 hc         1 B73       0.028033
     30 HAAB        13.9870    -1.3700    -1.1740 hc         1 B73       0.028033
     31 HAH         -1.4630     3.2180    -1.0920 h4         1 B73       0.130000
     32 HAI         -3.6890     1.7000    -1.7950 h4         1 B73       0.244000
     33 HAJ         -1.2010    -0.5880     0.6770 h5         1 B73       0.185000
     34 HAK         12.4100    -1.6840     1.4390 hc         1 B73       0.035200
     35 HAKA        12.9760    -0.1640     0.7870 hc         1 B73       0.035200
     36 HAL         11.5520    -0.5130    -1.2460 hc         1 B73       0.036700
     37 HALA        10.9920    -2.0350    -0.5890 hc         1 B73       0.036700
     38 HAM         10.0420    -0.8090     1.3950 hc         1 B73       0.035700
     39 HAMA        10.5520     0.7070     0.6850 hc         1 B73       0.035700
     40 HAN          9.0980     0.2470    -1.3110 hc         1 B73       0.036700
     41 HANA         8.6060    -1.2710    -0.5950 hc         1 B73       0.036700
     42 HAO          7.6690     0.0040     1.3790 hc         1 B73       0.035200
     43 HAOA         8.0650     1.5020     0.5660 hc         1 B73       0.035200
     44 HAP          6.5780     0.8300    -1.3500 hc         1 B73       0.037700
     45 HAPA         6.2050    -0.6640    -0.5210 hc         1 B73       0.037700
     46 HAQ          5.2610     0.6920     1.4040 hc         1 B73       0.034200
     47 HAQA         5.5190     2.1450     0.4630 hc         1 B73       0.034200
     48 HAR          4.0140     1.2230    -1.3330 hc         1 B73       0.039700
     49 HARA         3.7820    -0.2240    -0.3750 hc         1 B73       0.039700
     50 HAS          2.8160     1.2040     1.4770 hc         1 B73       0.034200
     51 HASA         2.9380     2.6010     0.4270 hc         1 B73       0.034200
     52 HAT          1.4250     1.4860    -1.2340 hc         1 B73       0.052700
     53 HATA         1.3440     0.0700    -0.1990 hc         1 B73       0.052700
     54 HAU          0.3030     1.4570     1.6140 h1         1 B73       0.052700
     55 HAUA         0.3690     2.8670     0.5700 h1         1 B73       0.052700
     56 HAV         -3.0120    -1.7940    -0.7200 h1         1 B73       0.064200
     57 HAVA        -4.1030    -0.8050    -1.6870 h1         1 B73       0.064200
     58 HAW         -4.1140    -1.0120     1.3410 hc         1 B73       0.024700
@<TRIPOS>BOND
     1     1    11 1   
     2     1    28 1   
     3     1    29 1   
     4     1    30 1   
     5     2    26 1   
     6     3    27 1   
     7     4    26 1   
     8     5    26 1   
     9     6    27 1   
    10     7    27 1   
    11     8     9 2   
    12     8    24 1   
    13     8    31 1   
    14     9    25 1   
    15     9    32 1   
    16    10    24 2   
    17    10    25 1   
    18    10    33 1   
    19    11    12 1   
    20    11    34 1   
    21    11    35 1   
    22    12    13 1   
    23    12    36 1   
    24    12    37 1   
    25    13    14 1   
    26    13    38 1   
    27    13    39 1   
    28    14    15 1   
    29    14    40 1   
    30    14    41 1   
    31    15    16 1   
    32    15    42 1   
    33    15    43 1   
    34    16    17 1   
    35    16    44 1   
    36    16    45 1   
    37    17    18 1   
    38    17    46 1   
    39    17    47 1   
    40    18    19 1   
    41    18    48 1   
    42    18    49 1   
    43    19    20 1   
    44    19    50 1   
    45    19    51 1   
    46    20    21 1   
    47    20    52 1   
    48    20    53 1   
    49    21    24 1   
    50    21    54 1   
    51    21    55 1   
    52    22    23 1   
    53    22    25 1   
    54    22    56 1   
    55    22    57 1   
    56    23    26 1   
    57    23    27 1   
    58    23    58 1   
@<TRIPOS>SUBSTRUCTURE
     1 B73         1 TEMP              0 ****  ****    0 ROOT
