@<TRIPOS>MOLECULE
B74
   19    19     1     0     0
SMALL
No Charge or Current Charge


@<TRIPOS>ATOM
      1 CB1          2.2490     0.3660    -0.5220 c3         1 B74       0.207900
      2 CG          -0.2230     0.8850    -0.2120 ca         1 B74      -0.089000
      3 CD1          0.8110    -0.0710    -0.2760 ca         1 B74      -0.086300
      4 CD2         -1.5550     0.4870     0.0100 ca         1 B74      -0.080300
      5 CE1          0.5000    -1.4360    -0.1150 ca         1 B74      -0.091000
      6 CE2         -1.8530    -0.8800     0.1650 ca         1 B74      -0.103000
      7 CZ          -0.8280    -1.8380     0.1040 ca         1 B74      -0.112000
      8 CB2         -2.6650     1.5260     0.0740 c3         1 B74      -0.045800
      9 O1           2.9110     0.6250     0.7210 oh         1 B74      -0.653000
     10 HB11         2.7780    -0.4200    -1.0770 h1         1 B74       0.022700
     11 HB12         2.2520     1.2680    -1.1480 h1         1 B74       0.022700
     12 HE1          1.2890    -2.1840    -0.1600 ha         1 B74       0.112000
     13 HE2         -2.8790    -1.2000     0.3340 ha         1 B74       0.110000
     14 HZ          -1.0630    -2.8930     0.2260 ha         1 B74       0.112000
     15 HB21        -3.0740     1.7210    -0.9240 hc         1 B74       0.041367
     16 HB22        -3.4890     1.1930     0.7150 hc         1 B74       0.041367
     17 H1          -2.2980     2.4780     0.4780 hc         1 B74       0.041367
     18 H2           3.8270     0.9010     0.5000 ho         1 B74       0.439000
     19 HG           0.0120     1.9400    -0.3360 ha         1 B74       0.110000
@<TRIPOS>BOND
     1     1     3 1   
     2     1     9 1   
     3     1    10 1   
     4     1    11 1   
     5     2     3 ar  
     6     2     4 ar  
     7     2    19 1   
     8     3     5 ar  
     9     4     6 ar  
    10     4     8 1   
    11     5     7 ar  
    12     5    12 1   
    13     6     7 ar  
    14     6    13 1   
    15     7    14 1   
    16     8    15 1   
    17     8    16 1   
    18     8    17 1   
    19     9    18 1   
@<TRIPOS>SUBSTRUCTURE
     1 B74         1 TEMP              0 ****  ****    0 ROOT
