@<TRIPOS>MOLECULE
B74
   19    19     1     0     0
SMALL
bcc


@<TRIPOS>ATOM
      1 CB1          2.2190     0.3700    -0.5430 c3         1 B74       0.184700
      2 CG          -0.2230     0.8630    -0.2320 ca         1 B74      -0.107000
      3 CD1          0.8020    -0.0730    -0.3150 ca         1 B74      -0.086300
      4 CD2         -1.5410     0.4870     0.0210 ca         1 B74      -0.080300
      5 CE1          0.5020    -1.4190    -0.1290 ca         1 B74      -0.109000
      6 CE2         -1.8170    -0.8660     0.2030 ca         1 B74      -0.121000
      7 CZ          -0.8030    -1.8130     0.1260 ca         1 B74      -0.130000
      8 CB2         -2.6340     1.5150     0.0700 c3         1 B74      -0.045800
      9 O1           2.8240     0.5840     0.7180 oh         1 B74      -0.590800
     10 HB11         2.7540    -0.3970    -1.1160 h1         1 B74       0.022700
     11 HB12         2.2240     1.2840    -1.1490 h1         1 B74       0.022700
     12 HE1          1.2900    -2.1610    -0.1870 ha         1 B74       0.130000
     13 HE2         -2.8330    -1.1830     0.4050 ha         1 B74       0.128000
     14 HZ          -1.0360    -2.8610     0.2680 ha         1 B74       0.130000
     15 HB21        -2.9600     1.7870    -0.9360 hc         1 B74       0.041367
     16 HB22        -3.5070     1.1480     0.6070 hc         1 B74       0.041367
     17 H1          -2.3000     2.4310     0.5580 hc         1 B74       0.041367
     18 H2           3.7330     0.8580     0.5620 ho         1 B74       0.400000
     19 HG           0.0070     1.9140    -0.3750 ha         1 B74       0.128000
@<TRIPOS>BOND
     1     1     3 1   
     2     1     9 1   
     3     1    10 1   
     4     1    11 1   
     5     2     3 ar  
     6     2     4 ar  
     7     2    19 1   
     8     3     5 ar  
     9     4     6 ar  
    10     4     8 1   
    11     5     7 ar  
    12     5    12 1   
    13     6     7 ar  
    14     6    13 1   
    15     7    14 1   
    16     8    15 1   
    17     8    16 1   
    18     8    17 1   
    19     9    18 1   
@<TRIPOS>SUBSTRUCTURE
     1 B74         1 TEMP              0 ****  ****    0 ROOT
