@<TRIPOS>MOLECULE
B75
   56    59     1     0     0
SMALL
No Charge or Current Charge


@<TRIPOS>ATOM
      1 CAX          6.9760    -5.8560     0.9170 ca         1 B75      -0.066000
      2 CBG          5.7130    -6.4660     1.0350 ca         1 B75      -0.058000
      3 CAT          5.3620    -7.1430     2.2190 ca         1 B75      -0.151000
      4 CAM          4.0990    -7.7450     2.3420 ca         1 B75      -0.132000
      5 CAL          3.1790    -7.6700     1.2830 ca         1 B75      -0.180000
      6 CAS          3.5200    -6.9940     0.0960 ca         1 B75      -0.022000
      7 CBF          4.7890    -6.3920    -0.0330 ca         1 B75      -0.022000
      8 CAU          5.1420    -5.7130    -1.2160 ca         1 B75      -0.050000
      9 CAR          6.4090    -5.1150    -1.3340 ca         1 B75      -0.088000
     10 CBE          7.3300    -5.1800    -0.2690 ca         1 B75      -0.240500
     11 SBK          8.9150    -4.3310    -0.4070 sy         1 B75       0.967600
     12 OAC          9.5040    -4.5980    -1.7210 o          1 B75      -0.632000
     13 OAD          9.6940    -4.4360     0.8300 o          1 B75      -0.632000
     14 NAZ          8.5200    -2.7090    -0.5430 nu         1 B75      -0.856100
     15 CBB          7.5190    -2.0620     0.1720 ca         1 B75       0.254000
     16 CAW          6.4860    -1.4170    -0.5290 ca         1 B75      -0.137000
     17 CAO          7.5070    -2.0630     1.5770 ca         1 B75      -0.168000
     18 CAK          6.4700    -1.4240     2.2750 ca         1 B75      -0.113000
     19 CAQ          5.4350    -0.7920     1.5670 ca         1 B75      -0.159000
     20 CBD          5.4170    -0.7830     0.1500 cp         1 B75       0.044000
     21 CBC          4.2950    -0.1410    -0.6060 cp         1 B75      -0.080000
     22 CAV          3.8050    -0.7120    -1.8100 ca         1 B75      -0.064000
     23 CAP          3.6850     1.0520    -0.1430 ca         1 B75      -0.162000
     24 CAJ          2.6390     1.6520    -0.8590 ca         1 B75      -0.160000
     25 CAN          2.1750     1.0710    -2.0500 ca         1 B75      -0.104000
     26 CBA          2.7460    -0.1240    -2.5310 ca         1 B75       0.019700
     27 CAY          2.2700    -0.7300    -3.8570 c3         1 B75      -0.054100
     28 CBH          0.9900    -1.6330    -3.7940 c3         1 B75      -0.252000
     29 PBI          1.3190    -3.2320    -2.8600 p5         1 B75       1.262500
     30 OAF          1.1300    -2.8670    -1.4230 o          1 B75      -0.879333
     31 OAG          2.7280    -3.6920    -3.0420 o          1 B75      -0.879333
     32 OAA          0.3630    -4.3350    -3.1770 o          1 B75      -0.879333
     33 PBJ          0.6410    -2.2830    -5.5280 p5         1 B75       1.262500
     34 OAH          0.6530    -1.1040    -6.4500 o          1 B75      -0.879333
     35 OAI          1.6690    -3.2540    -6.0070 o          1 B75      -0.879333
     36 OAB         -0.7290    -2.8770    -5.6150 o          1 B75      -0.879333
     37 OAE         -0.0920    -0.8350    -3.1590 oh         1 B75      -0.703000
     38 HAX          7.6760    -5.9010     1.7480 ha         1 B75       0.096000
     39 HAT          6.0670    -7.2030     3.0450 ha         1 B75       0.067000
     40 HAM          3.8330    -8.2660     3.2580 ha         1 B75       0.056000
     41 HAL          2.2010    -8.1340     1.3810 ha         1 B75       0.092000
     42 HAS          2.7990    -6.9370    -0.7190 ha         1 B75       0.227000
     43 HAU          4.4340    -5.6360    -2.0410 ha         1 B75       0.242000
     44 HAR          6.6660    -4.5830    -2.2480 ha         1 B75       0.125000
     45 HNAZ         8.5000    -2.5550    -1.5400 hn         1 B75       0.458000
     46 HAW          6.5050    -1.4160    -1.6140 ha         1 B75       0.129000
     47 HAO          8.3010    -2.5550     2.1300 ha         1 B75       0.106000
     48 HAK          6.4640    -1.4270     3.3620 ha         1 B75       0.067000
     49 HAQ          4.6280    -0.3210     2.1220 ha         1 B75       0.096000
     50 HAV          4.2440    -1.6340    -2.1820 ha         1 B75       0.168000
     51 HAP          4.0380     1.5230     0.7700 ha         1 B75       0.057000
     52 HAJ          2.1900     2.5720    -0.4940 ha         1 B75       0.055000
     53 HAN          1.3700     1.5480    -2.6040 ha         1 B75       0.121000
     54 HAY1         3.0880    -1.3020    -4.3120 hc         1 B75       0.064200
     55 HAY2         2.0820     0.0930    -4.5570 hc         1 B75       0.064200
     56 HOAE        -0.0960    -1.1150    -2.2120 ho         1 B75       0.462000
@<TRIPOS>BOND
     1     1     2 ar  
     2     1    10 ar  
     3     1    38 1   
     4     2     3 ar  
     5     2     7 ar  
     6     3     4 ar  
     7     3    39 1   
     8     4     5 ar  
     9     4    40 1   
    10     5     6 ar  
    11     5    41 1   
    12     6     7 ar  
    13     6    42 1   
    14     7     8 ar  
    15     8     9 ar  
    16     8    43 1   
    17     9    10 ar  
    18     9    44 1   
    19    10    11 1   
    20    11    12 2   
    21    11    13 2   
    22    11    14 1   
    23    14    15 1   
    24    14    45 1   
    25    15    16 ar  
    26    15    17 ar  
    27    16    20 ar  
    28    16    46 1   
    29    17    18 ar  
    30    17    47 1   
    31    18    19 ar  
    32    18    48 1   
    33    19    20 ar  
    34    19    49 1   
    35    20    21 1   
    36    21    22 ar  
    37    21    23 ar  
    38    22    26 ar  
    39    22    50 1   
    40    23    24 ar  
    41    23    51 1   
    42    24    25 ar  
    43    24    52 1   
    44    25    26 ar  
    45    25    53 1   
    46    26    27 1   
    47    27    28 1   
    48    27    54 1   
    49    27    55 1   
    50    28    29 1   
    51    28    33 1   
    52    28    37 1   
    53    29    30 1   
    54    29    31 1   
    55    29    32 1   
    56    33    34 1   
    57    33    35 1   
    58    33    36 1   
    59    37    56 1   
@<TRIPOS>SUBSTRUCTURE
     1 B75         1 TEMP              0 ****  ****    0 ROOT
