@<TRIPOS>MOLECULE
B75
   56    59     1     0     0
SMALL
bcc


@<TRIPOS>ATOM
      1 CAX          6.8940    -5.6210     0.7680 ca         1 B75      -0.084000
      2 CBG          5.5270    -5.9260     0.9580 ca         1 B75      -0.058000
      3 CAT          5.0640    -6.5470     2.1410 ca         1 B75      -0.169000
      4 CAM          3.7270    -6.7700     2.3250 ca         1 B75      -0.150000
      5 CAL          2.7950    -6.3630     1.3460 ca         1 B75      -0.198000
      6 CAS          3.2130    -5.7600     0.1890 ca         1 B75      -0.040000
      7 CBF          4.5930    -5.5510    -0.0420 ca         1 B75      -0.022000
      8 CAU          5.0510    -4.9620    -1.2460 ca         1 B75      -0.068000
      9 CAR          6.3810    -4.7320    -1.4350 ca         1 B75      -0.106000
     10 CBE          7.2920    -5.0350    -0.4000 ca         1 B75      -0.240500
     11 SBK          8.9310    -4.4050    -0.5530 sy         1 B75       1.109200
     12 OAC          9.5150    -4.7770    -1.8330 o          1 B75      -0.702800
     13 OAD          9.6620    -4.6940     0.6680 o          1 B75      -0.702800
     14 NAZ          8.6890    -2.7460    -0.6430 nu         1 B75      -0.662500
     15 CBB          7.6410    -2.1910     0.1380 ca         1 B75       0.115600
     16 CAW          6.5160    -1.6800    -0.4980 ca         1 B75      -0.155000
     17 CAO          7.7200    -2.1990     1.5240 ca         1 B75      -0.186000
     18 CAK          6.6450    -1.7180     2.2570 ca         1 B75      -0.131000
     19 CAQ          5.5160    -1.2230     1.6240 ca         1 B75      -0.177000
     20 CBD          5.4380    -1.1840     0.2300 cp         1 B75       0.044000
     21 CBC          4.2500    -0.6350    -0.4610 cp         1 B75      -0.080000
     22 CAV          3.8260    -1.1410    -1.6930 ca         1 B75      -0.082000
     23 CAP          3.5430     0.4240     0.1120 ca         1 B75      -0.180000
     24 CAJ          2.4490     0.9660    -0.5450 ca         1 B75      -0.178000
     25 CAN          2.0660     0.4720    -1.7840 ca         1 B75      -0.122000
     26 CBA          2.7570    -0.5780    -2.3890 ca         1 B75       0.019700
     27 CAY          2.3510    -1.0300    -3.7620 c3         1 B75      -0.054100
     28 CBH          1.2440    -2.1080    -3.8190 c3         1 B75       0.040400
     29 PBI          1.9430    -3.7920    -3.3420 p5         1 B75       1.104700
     30 OAF          1.6110    -3.7660    -1.8170 o          1 B75      -0.879333
     31 OAG          3.4530    -3.8030    -3.6530 o          1 B75      -0.879333
     32 OAA          1.1970    -4.9200    -4.0580 o          1 B75      -0.879333
     33 PBJ          0.4460    -2.0200    -5.5070 p5         1 B75       1.104700
     34 OAH          0.0820    -0.5300    -5.7060 o          1 B75      -0.879333
     35 OAI          1.5340    -2.4820    -6.4910 o          1 B75      -0.879333
     36 OAB         -0.8090    -2.9020    -5.4860 o          1 B75      -0.879333
     37 OAE          0.2490    -1.8190    -2.8330 oh         1 B75      -0.640800
     38 HAX          7.5990    -5.8250     1.5630 ha         1 B75       0.114000
     39 HAT          5.7810    -6.8370     2.9000 ha         1 B75       0.085000
     40 HAM          3.3760    -7.2470     3.2310 ha         1 B75       0.074000
     41 HAL          1.7390    -6.5220     1.5230 ha         1 B75       0.110000
     42 HAS          2.5080    -5.3910    -0.5510 ha         1 B75       0.245000
     43 HAU          4.3430    -4.6510    -2.0150 ha         1 B75       0.260000
     44 HAR          6.7260    -4.2770    -2.3550 ha         1 B75       0.143000
     45 HNAZ         8.6770    -2.4430    -1.6110 hn         1 B75       0.402800
     46 HAW          6.4790    -1.6730    -1.5810 ha         1 B75       0.147000
     47 HAO          8.6010    -2.5760     2.0250 ha         1 B75       0.124000
     48 HAK          6.6880    -1.7350     3.3390 ha         1 B75       0.085000
     49 HAQ          4.6830    -0.8780     2.2220 ha         1 B75       0.114000
     50 HAV          4.3170    -2.0010    -2.1320 ha         1 B75       0.186000
     51 HAP          3.8610     0.8500     1.0560 ha         1 B75       0.075000
     52 HAJ          1.9080     1.7900    -0.0970 ha         1 B75       0.073000
     53 HAN          1.2330     0.9230    -2.3090 ha         1 B75       0.139000
     54 HAY1         3.2190    -1.3940    -4.3100 hc         1 B75       0.064200
     55 HAY2         1.9780    -0.1480    -4.2900 hc         1 B75       0.064200
     56 HOAE         0.5490    -2.4000    -2.0980 ho         1 B75       0.423000
@<TRIPOS>BOND
     1     1     2 ar  
     2     1    10 ar  
     3     1    38 1   
     4     2     3 ar  
     5     2     7 ar  
     6     3     4 ar  
     7     3    39 1   
     8     4     5 ar  
     9     4    40 1   
    10     5     6 ar  
    11     5    41 1   
    12     6     7 ar  
    13     6    42 1   
    14     7     8 ar  
    15     8     9 ar  
    16     8    43 1   
    17     9    10 ar  
    18     9    44 1   
    19    10    11 1   
    20    11    12 2   
    21    11    13 2   
    22    11    14 1   
    23    14    15 1   
    24    14    45 1   
    25    15    16 ar  
    26    15    17 ar  
    27    16    20 ar  
    28    16    46 1   
    29    17    18 ar  
    30    17    47 1   
    31    18    19 ar  
    32    18    48 1   
    33    19    20 ar  
    34    19    49 1   
    35    20    21 1   
    36    21    22 ar  
    37    21    23 ar  
    38    22    26 ar  
    39    22    50 1   
    40    23    24 ar  
    41    23    51 1   
    42    24    25 ar  
    43    24    52 1   
    44    25    26 ar  
    45    25    53 1   
    46    26    27 1   
    47    27    28 1   
    48    27    54 1   
    49    27    55 1   
    50    28    29 1   
    51    28    33 1   
    52    28    37 1   
    53    29    30 1   
    54    29    31 1   
    55    29    32 1   
    56    33    34 1   
    57    33    35 1   
    58    33    36 1   
    59    37    56 1   
@<TRIPOS>SUBSTRUCTURE
     1 B75         1 TEMP              0 ****  ****    0 ROOT
