@<TRIPOS>MOLECULE
B76
   46    48     1     0     0
SMALL
bcc


@<TRIPOS>ATOM
      1 CAN         -3.6780    -0.8410     7.7690 ca         1 B76      -0.154000
      2 CAI         -4.9800    -0.5540     8.1540 ca         1 B76      -0.134000
      3 CAH         -5.9080    -0.1230     7.2150 ca         1 B76      -0.298000
      4 CAJ         -5.5240     0.0190     5.8880 ca         1 B76      -0.134000
      5 CAO         -4.2210    -0.2660     5.5040 ca         1 B76      -0.154000
      6 CAX         -3.2790    -0.7010     6.4380 cp         1 B76      -0.097000
      7 CAZ         -1.8920    -1.0060     6.0290 cp         1 B76      -0.062000
      8 CAT         -1.6310    -1.6050     4.7980 ca         1 B76      -0.119000
      9 CAQ         -0.8180    -0.7070     6.8680 ca         1 B76      -0.207000
     10 CAL          0.4780    -1.0020     6.4760 ca         1 B76      -0.134000
     11 CAR          0.7240    -1.5930     5.2470 ca         1 B76      -0.239000
     12 CBA         -0.3310    -1.9010     4.3870 cp         1 B76      -0.009000
     13 CAY         -0.0760    -2.5310     3.0740 cp         1 B76       0.004000
     14 CAS         -0.8580    -2.1770     1.9710 ca         1 B76      -0.230000
     15 CAP          0.9410    -3.4690     2.9230 ca         1 B76      -0.232000
     16 CAK          1.1650    -4.0430     1.6770 ca         1 B76      -0.128000
     17 CAM          0.3950    -3.6940     0.5840 ca         1 B76      -0.186000
     18 CAW         -0.6300    -2.7490     0.7180 ca         1 B76       0.231100
     19 OAV         -1.3220    -2.4640    -0.3820 os         1 B76      -0.230900
     20 CAU         -2.3750    -1.5140    -0.3110 c3         1 B76       0.143400
     21 CBB         -2.9040    -1.2150    -1.7000 c3         1 B76       0.120400
     22 PBC         -1.6300    -0.2430    -2.7100 p5         1 B76       1.063200
     23 OAD         -2.5280     0.9760    -3.1060 o          1 B76      -0.843667
     24 OAE         -0.5010     0.1750    -1.7580 o          1 B76      -0.843667
     25 OAA         -1.1430    -1.0340    -3.9200 o          1 B76      -0.843667
     26 PBD         -3.6700    -2.7160    -2.5030 p5         1 B76       1.063200
     27 OAF         -2.5860    -3.7690    -2.7610 o          1 B76      -0.843667
     28 OAG         -4.7060    -3.1940    -1.4600 o          1 B76      -0.843667
     29 OAB         -4.3400    -2.1890    -3.7830 o          1 B76      -0.843667
     30 OAC         -3.9710    -0.2740    -1.4740 oh         1 B76      -0.638800
     31 HAN         -2.9710    -1.1920     8.5100 ha         1 B76       0.107500
     32 HAI         -5.2700    -0.6740     9.1900 ha         1 B76       0.077000
     33 HAH         -6.9240     0.1010     7.5140 ha         1 B76       0.069000
     34 HAJ         -6.2370     0.3610     5.1490 ha         1 B76       0.077000
     35 HAO         -3.9310    -0.1290     4.4700 ha         1 B76       0.107500
     36 HAT         -2.4610    -1.8820     4.1590 ha         1 B76       0.135000
     37 HAQ         -0.9930    -0.2220     7.8200 ha         1 B76       0.083000
     38 HAL          1.3060    -0.7540     7.1280 ha         1 B76       0.066000
     39 HAR          1.7440    -1.7930     4.9440 ha         1 B76       0.096000
     40 HAS         -1.6260    -1.4260     2.0970 ha         1 B76       0.147000
     41 HAP          1.5430    -3.7700     3.7710 ha         1 B76       0.088000
     42 HAK          1.9500    -4.7790     1.5610 ha         1 B76       0.076000
     43 HAM          0.5720    -4.1440    -0.3850 ha         1 B76       0.150000
     44 HAU1        -3.1810    -1.9220     0.3160 h1         1 B76       0.040200
     45 HAU2        -2.0110    -0.5900     0.1530 h1         1 B76       0.040200
     46 HOAC        -3.6950     0.4490    -2.1000 ho         1 B76       0.464000
@<TRIPOS>BOND
     1     1     2 ar  
     2     1     6 ar  
     3     1    31 1   
     4     2     3 ar  
     5     2    32 1   
     6     3     4 ar  
     7     3    33 1   
     8     4     5 ar  
     9     4    34 1   
    10     5     6 ar  
    11     5    35 1   
    12     6     7 1   
    13     7     8 ar  
    14     7     9 ar  
    15     8    12 ar  
    16     8    36 1   
    17     9    10 ar  
    18     9    37 1   
    19    10    11 ar  
    20    10    38 1   
    21    11    12 ar  
    22    11    39 1   
    23    12    13 1   
    24    13    14 ar  
    25    13    15 ar  
    26    14    18 ar  
    27    14    40 1   
    28    15    16 ar  
    29    15    41 1   
    30    16    17 ar  
    31    16    42 1   
    32    17    18 ar  
    33    17    43 1   
    34    18    19 1   
    35    19    20 1   
    36    20    21 1   
    37    20    44 1   
    38    20    45 1   
    39    21    22 1   
    40    21    26 1   
    41    21    30 1   
    42    22    23 1   
    43    22    24 1   
    44    22    25 1   
    45    26    27 1   
    46    26    28 1   
    47    26    29 1   
    48    30    46 1   
@<TRIPOS>SUBSTRUCTURE
     1 B76         1 TEMP              0 ****  ****    0 ROOT
