@<TRIPOS>MOLECULE
B76
   46    48     1     0     0
SMALL
No Charge or Current Charge


@<TRIPOS>ATOM
      1 CAN         -3.7320    -0.9110     7.9150 ca         1 B76      -0.136000
      2 CAI         -5.0480    -0.6100     8.3040 ca         1 B76      -0.116000
      3 CAH         -5.9690    -0.1370     7.3570 ca         1 B76      -0.280000
      4 CAJ         -5.5730     0.0340     6.0220 ca         1 B76      -0.116000
      5 CAO         -4.2560    -0.2680     5.6340 ca         1 B76      -0.136000
      6 CAX         -3.3050    -0.7480     6.5720 cp         1 B76      -0.097000
      7 CAZ         -1.8990    -1.0710     6.1570 cp         1 B76      -0.062000
      8 CAT         -1.6140    -1.5980     4.8720 ca         1 B76      -0.101000
      9 CAQ         -0.8080    -0.8640     7.0370 ca         1 B76      -0.189000
     10 CAL          0.5050    -1.1700     6.6480 ca         1 B76      -0.116000
     11 CAR          0.7570    -1.6910     5.3700 ca         1 B76      -0.221000
     12 CBA         -0.2970    -1.9160     4.4510 cp         1 B76      -0.009000
     13 CAY         -0.0310    -2.4750     3.0830 cp         1 B76       0.004000
     14 CAS         -0.7940    -2.0620     1.9610 ca         1 B76      -0.212000
     15 CAP          0.9920    -3.4330     2.8700 ca         1 B76      -0.214000
     16 CAK          1.2460    -3.9590     1.5950 ca         1 B76      -0.110000
     17 CAM          0.4780    -3.5350     0.5000 ca         1 B76      -0.168000
     18 CAW         -0.5420    -2.5870     0.6730 ca         1 B76       0.231100
     19 OAV         -1.2600    -2.2050    -0.4430 os         1 B76      -0.254100
     20 CAU         -2.3280    -1.2460    -0.3770 c3         1 B76       0.166600
     21 CBB         -2.9500    -1.0040    -1.7740 c3         1 B76      -0.172000
     22 PBC         -1.6380    -0.6070    -3.0490 p5         1 B76       1.221000
     23 OAD         -2.3100     0.1500    -4.1490 o          1 B76      -0.843667
     24 OAE         -0.6610     0.3310    -2.4160 o          1 B76      -0.843667
     25 OAA         -0.9050    -1.7810    -3.6060 o          1 B76      -0.843667
     26 PBD         -3.7470    -2.5720    -2.4220 p5         1 B76       1.221000
     27 OAF         -2.8340    -3.7540    -2.4250 o          1 B76      -0.843667
     28 OAG         -4.8860    -2.8840    -1.5040 o          1 B76      -0.843667
     29 OAB         -4.3070    -2.3460    -3.7890 o          1 B76      -0.843667
     30 OAC         -3.9140     0.1270    -1.6390 oh         1 B76      -0.701000
     31 HAN         -3.0390    -1.2880     8.6630 ha         1 B76       0.089500
     32 HAI         -5.3530    -0.7470     9.3390 ha         1 B76       0.059000
     33 HAH         -6.9870     0.0960     7.6570 ha         1 B76       0.051000
     34 HAJ         -6.2840     0.4040     5.2870 ha         1 B76       0.059000
     35 HAO         -3.9690    -0.1140     4.5970 ha         1 B76       0.089500
     36 HAT         -2.4390    -1.7920     4.1930 ha         1 B76       0.117000
     37 HAQ         -0.9770    -0.4500     8.0270 ha         1 B76       0.065000
     38 HAL          1.3280    -0.9980     7.3360 ha         1 B76       0.048000
     39 HAR          1.7820    -1.9100     5.0840 ha         1 B76       0.078000
     40 HAS         -1.5690    -1.3170     2.1050 ha         1 B76       0.129000
     41 HAP          1.5900    -3.7810     3.7080 ha         1 B76       0.070000
     42 HAK          2.0330    -4.6950     1.4550 ha         1 B76       0.058000
     43 HAM          0.6720    -3.9400    -0.4900 ha         1 B76       0.132000
     44 HAU1        -3.1110    -1.5990     0.3070 h1         1 B76       0.040200
     45 HAU2        -1.9460    -0.2930     0.0120 h1         1 B76       0.040200
     46 HOAC        -4.0830     0.4480    -2.5600 ho         1 B76       0.503000
@<TRIPOS>BOND
     1     1     2 ar  
     2     1     6 ar  
     3     1    31 1   
     4     2     3 ar  
     5     2    32 1   
     6     3     4 ar  
     7     3    33 1   
     8     4     5 ar  
     9     4    34 1   
    10     5     6 ar  
    11     5    35 1   
    12     6     7 1   
    13     7     8 ar  
    14     7     9 ar  
    15     8    12 ar  
    16     8    36 1   
    17     9    10 ar  
    18     9    37 1   
    19    10    11 ar  
    20    10    38 1   
    21    11    12 ar  
    22    11    39 1   
    23    12    13 1   
    24    13    14 ar  
    25    13    15 ar  
    26    14    18 ar  
    27    14    40 1   
    28    15    16 ar  
    29    15    41 1   
    30    16    17 ar  
    31    16    42 1   
    32    17    18 ar  
    33    17    43 1   
    34    18    19 1   
    35    19    20 1   
    36    20    21 1   
    37    20    44 1   
    38    20    45 1   
    39    21    22 1   
    40    21    26 1   
    41    21    30 1   
    42    22    23 1   
    43    22    24 1   
    44    22    25 1   
    45    26    27 1   
    46    26    28 1   
    47    26    29 1   
    48    30    46 1   
@<TRIPOS>SUBSTRUCTURE
     1 B76         1 TEMP              0 ****  ****    0 ROOT
