@<TRIPOS>MOLECULE
B77
   32    33     1     0     0
SMALL
No Charge or Current Charge


@<TRIPOS>ATOM
      1 C1          -3.6880     3.1120     0.3220 c3         1 B77      -0.042800
      2 C2          -3.1310     1.7080     0.1430 ca         1 B77      -0.072300
      3 C3          -1.7400     1.4990     0.1170 ca         1 B77      -0.171000
      4 C4          -1.2140     0.1960    -0.0520 ca         1 B77       0.120100
      5 C5          -2.0950    -0.9020    -0.1970 ca         1 B77       0.107100
      6 C6          -3.4910    -0.6840    -0.1720 ca         1 B77      -0.166000
      7 C7          -4.0010     0.6140    -0.0040 ca         1 B77      -0.108000
      8 O8          -1.5570    -2.1690    -0.3600 os         1 B77      -0.324100
      9 C9          -2.3750    -3.3420    -0.5130 c3         1 B77       0.145900
     10 O10          0.1510    -0.0410    -0.0800 os         1 B77      -0.334100
     11 C11          1.1260     1.0130     0.0710 c3         1 B77       0.110300
     12 C12          2.5370     0.4250     0.0140 ca         1 B77       0.342300
     13 N13          3.3820     0.9270    -0.9250 nb         1 B77      -0.681000
     14 C14          4.6370     0.4240    -0.9860 ca         1 B77       0.339900
     15 C15          5.0990    -0.5850    -0.1240 ca         1 B77      -0.164000
     16 C16          4.2310    -1.1040     0.8500 ca         1 B77      -0.078000
     17 C17          2.9280    -0.5850     0.9170 ca         1 B77      -0.130000
     18 H1          -3.7490     3.6330    -0.6410 hc         1 B77       0.041367
     19 H1A         -4.6940     3.0930     0.7570 hc         1 B77       0.041367
     20 H1B         -3.0540     3.7110     0.9870 hc         1 B77       0.041367
     21 H3          -1.0840     2.3570     0.2280 ha         1 B77       0.120000
     22 H6          -4.1940    -1.5050    -0.2810 ha         1 B77       0.118000
     23 H7          -5.0780     0.7690     0.0120 ha         1 B77       0.112000
     24 H9          -1.7440    -4.2330    -0.6270 h1         1 B77       0.039033
     25 H9A         -3.0150    -3.4900     0.3660 h1         1 B77       0.039033
     26 H9B         -3.0110    -3.2600    -1.4040 h1         1 B77       0.039033
     27 H11          1.0080     1.7600    -0.7240 h1         1 B77       0.054700
     28 H11A         0.9990     1.5190     1.0360 h1         1 B77       0.054700
     29 H14          5.2910     0.8430    -1.7490 h4         1 B77       0.018100
     30 H15          6.1160    -0.9540    -0.2150 ha         1 B77       0.123000
     31 H16          4.5580    -1.8860     1.5330 ha         1 B77       0.119000
     32 H17          2.2220    -0.9580     1.6550 ha         1 B77       0.147000
@<TRIPOS>BOND
     1     1     2 1   
     2     1    18 1   
     3     1    19 1   
     4     1    20 1   
     5     2     3 ar  
     6     2     7 ar  
     7     3     4 ar  
     8     3    21 1   
     9     4     5 ar  
    10     4    10 1   
    11     5     6 ar  
    12     5     8 1   
    13     6     7 ar  
    14     6    22 1   
    15     7    23 1   
    16     8     9 1   
    17     9    24 1   
    18     9    25 1   
    19     9    26 1   
    20    10    11 1   
    21    11    12 1   
    22    11    27 1   
    23    11    28 1   
    24    12    13 ar  
    25    12    17 ar  
    26    13    14 ar  
    27    14    15 ar  
    28    14    29 1   
    29    15    16 ar  
    30    15    30 1   
    31    16    17 ar  
    32    16    31 1   
    33    17    32 1   
@<TRIPOS>SUBSTRUCTURE
     1 B77         1 TEMP              0 ****  ****    0 ROOT
