@<TRIPOS>MOLECULE
B77
   32    33     1     0     0
SMALL
abcg2


@<TRIPOS>ATOM
      1 C1          -3.6140     3.1190     0.0260 c3         1 B77      -0.042800
      2 C2          -3.0890     1.7130     0.0200 ca         1 B77      -0.072300
      3 C3          -1.7070     1.4860     0.0120 ca         1 B77      -0.171000
      4 C4          -1.1900     0.2030     0.0050 ca         1 B77       0.120100
      5 C5          -2.0610    -0.9070     0.0060 ca         1 B77       0.107100
      6 C6          -3.4250    -0.6830     0.0140 ca         1 B77      -0.166000
      7 C7          -3.9320     0.6190     0.0210 ca         1 B77      -0.108000
      8 O8          -1.4670    -2.1170    -0.0010 os         1 B77      -0.324100
      9 C9          -2.2970    -3.2590     0.0100 c3         1 B77       0.145900
     10 O10          0.1240    -0.0990    -0.0020 os         1 B77      -0.334100
     11 C11          1.0610     0.9480    -0.0020 c3         1 B77       0.110300
     12 C12          2.4490     0.3710    -0.0170 ca         1 B77       0.342300
     13 N13          3.4160     1.2840    -0.0230 nb         1 B77      -0.681000
     14 C14          4.6760     0.8720    -0.0360 ca         1 B77       0.339900
     15 C15          5.0410    -0.4670    -0.0440 ca         1 B77      -0.164000
     16 C16          4.0300    -1.4140    -0.0370 ca         1 B77      -0.078000
     17 C17          2.7070    -0.9950    -0.0240 ca         1 B77      -0.130000
     18 H1          -3.2800     3.6730    -0.8530 hc         1 B77       0.041367
     19 H1A         -4.7040     3.1370     0.0350 hc         1 B77       0.041367
     20 H1B         -3.2660     3.6710     0.9010 hc         1 B77       0.041367
     21 H3          -1.0430     2.3410     0.0120 ha         1 B77       0.120000
     22 H6          -4.1220    -1.5100     0.0150 ha         1 B77       0.118000
     23 H7          -5.0060     0.7610     0.0270 ha         1 B77       0.112000
     24 H9          -1.6360    -4.1220     0.0070 h1         1 B77       0.039033
     25 H9A         -2.9250    -3.3010     0.9040 h1         1 B77       0.039033
     26 H9B         -2.9390    -3.3070    -0.8740 h1         1 B77       0.039033
     27 H11          0.9340     1.5960    -0.8770 h1         1 B77       0.054700
     28 H11A         0.9470     1.5830     0.8860 h1         1 B77       0.054700
     29 H14          5.4360     1.6450    -0.0410 h4         1 B77       0.018100
     30 H15          6.0840    -0.7490    -0.0550 ha         1 B77       0.123000
     31 H16          4.2640    -2.4710    -0.0430 ha         1 B77       0.119000
     32 H17          1.9030    -1.7160    -0.0190 ha         1 B77       0.147000
@<TRIPOS>BOND
     1     1     2 1   
     2     1    18 1   
     3     1    19 1   
     4     1    20 1   
     5     2     3 ar  
     6     2     7 ar  
     7     3     4 ar  
     8     3    21 1   
     9     4     5 ar  
    10     4    10 1   
    11     5     6 ar  
    12     5     8 1   
    13     6     7 ar  
    14     6    22 1   
    15     7    23 1   
    16     8     9 1   
    17     9    24 1   
    18     9    25 1   
    19     9    26 1   
    20    10    11 1   
    21    11    12 1   
    22    11    27 1   
    23    11    28 1   
    24    12    13 ar  
    25    12    17 ar  
    26    13    14 ar  
    27    14    15 ar  
    28    14    29 1   
    29    15    16 ar  
    30    15    30 1   
    31    16    17 ar  
    32    16    31 1   
    33    17    32 1   
@<TRIPOS>SUBSTRUCTURE
     1 B77         1 TEMP              0 ****  ****    0 ROOT
