@<TRIPOS>MOLECULE
B78
   32    33     1     0     0
SMALL
bcc


@<TRIPOS>ATOM
      1 C1          -0.7490     2.8780     0.5240 c3         1 B78      -0.026800
      2 C2          -1.5850     1.6500     0.3140 ca         1 B78      -0.139300
      3 C3          -0.9890     0.4170    -0.0000 ca         1 B78       0.174100
      4 C4          -1.7540    -0.7210    -0.1990 ca         1 B78      -0.254000
      5 C5          -3.1470    -0.6570    -0.0860 ca         1 B78       0.173100
      6 C6          -3.7600     0.5490     0.2230 ca         1 B78      -0.248000
      7 C7          -2.9640     1.6770     0.4150 ca         1 B78      -0.060000
      8 O8          -3.8010    -1.8160    -0.2970 os         1 B78      -0.319900
      9 C9          -5.2110    -1.8170    -0.2100 c3         1 B78       0.125700
     10 O10          0.3570     0.4350    -0.0910 os         1 B78      -0.318900
     11 C11          1.0500    -0.7700    -0.3260 c3         1 B78       0.182700
     12 C12          2.5220    -0.4930    -0.2350 ca         1 B78      -0.050300
     13 C13          3.0460     0.3760     0.7160 ca         1 B78      -0.231300
     14 C14          4.4200     0.5490     0.7760 ca         1 B78       0.398200
     15 N15          5.2790    -0.0720    -0.0260 nb         1 B78      -0.661000
     16 C16          4.7740    -0.9000    -0.9310 ca         1 B78       0.398200
     17 C17          3.4160    -1.1410    -1.0770 ca         1 B78      -0.231300
     18 H1          -0.2030     3.1590    -0.3790 hc         1 B78       0.040367
     19 H1A         -1.3760     3.7230     0.8060 hc         1 B78       0.040367
     20 H1B         -0.0070     2.7360     1.3110 hc         1 B78       0.040367
     21 H4          -1.3040    -1.6730    -0.4490 ha         1 B78       0.147000
     22 H6          -4.8330     0.6390     0.3160 ha         1 B78       0.137000
     23 H7          -3.4490     2.6140     0.6600 ha         1 B78       0.130000
     24 H9          -5.5610    -1.5400     0.7880 h1         1 B78       0.041033
     25 H9A         -5.6670    -1.1440    -0.9410 h1         1 B78       0.041033
     26 H9B         -5.5340    -2.8330    -0.4230 h1         1 B78       0.041033
     27 H11          0.7850    -1.5250     0.4240 h1         1 B78       0.048700
     28 H11A         0.8020    -1.1850    -1.3090 h1         1 B78       0.048700
     29 H13          2.4090     0.9140     1.4040 ha         1 B78       0.146000
     30 H14          4.8450     1.2240     1.5110 h4         1 B78       0.019100
     31 H16          5.4820    -1.3970    -1.5850 h4         1 B78       0.019100
     32 H17          3.0680    -1.8200    -1.8450 ha         1 B78       0.146000
@<TRIPOS>BOND
     1     1     2 1   
     2     1    18 1   
     3     1    19 1   
     4     1    20 1   
     5     2     3 ar  
     6     2     7 ar  
     7     3     4 ar  
     8     3    10 1   
     9     4     5 ar  
    10     4    21 1   
    11     5     6 ar  
    12     5     8 1   
    13     6     7 ar  
    14     6    22 1   
    15     7    23 1   
    16     8     9 1   
    17     9    24 1   
    18     9    25 1   
    19     9    26 1   
    20    10    11 1   
    21    11    12 1   
    22    11    27 1   
    23    11    28 1   
    24    12    13 ar  
    25    12    17 ar  
    26    13    14 ar  
    27    13    29 1   
    28    14    15 ar  
    29    14    30 1   
    30    15    16 ar  
    31    16    17 ar  
    32    16    31 1   
    33    17    32 1   
@<TRIPOS>SUBSTRUCTURE
     1 B78         1 TEMP              0 ****  ****    0 ROOT
