@<TRIPOS>MOLECULE
B78
   32    33     1     0     0
SMALL
No Charge or Current Charge


@<TRIPOS>ATOM
      1 C1          -0.7720     2.9530     0.0140 c3         1 B78      -0.026800
      2 C2          -1.6120     1.6800     0.0130 ca         1 B78      -0.139300
      3 C3          -0.9930     0.4120     0.0010 ca         1 B78       0.174100
      4 C4          -1.7870    -0.7550     0.0000 ca         1 B78      -0.236000
      5 C5          -3.1850    -0.6630     0.0120 ca         1 B78       0.173100
      6 C6          -3.8020     0.6040     0.0240 ca         1 B78      -0.230000
      7 C7          -3.0170     1.7680     0.0250 ca         1 B78      -0.042000
      8 O8          -3.9050    -1.8390     0.0110 os         1 B78      -0.343100
      9 C9          -5.3440    -1.8580     0.0220 c3         1 B78       0.148900
     10 O10          0.3880     0.3560    -0.0110 os         1 B78      -0.342100
     11 C11          1.1100    -0.8870    -0.0240 c3         1 B78       0.205900
     12 C12          2.6010    -0.5750    -0.0340 ca         1 B78      -0.050300
     13 C13          3.3230    -0.4290     1.1640 ca         1 B78      -0.148000
     14 C14          4.6970    -0.1370     1.1100 ca         1 B78       0.332900
     15 N15          5.3730     0.0150    -0.0530 nb         1 B78      -0.661000
     16 C16          4.6790    -0.1230    -1.2060 ca         1 B78       0.332900
     17 C17          3.3040    -0.4150    -1.2420 ca         1 B78      -0.148000
     18 H1          -0.1340     3.0040    -0.8770 hc         1 B78       0.040367
     19 H1A         -1.3950     3.8550     0.0250 hc         1 B78       0.040367
     20 H1B         -0.1200     2.9930     0.8950 hc         1 B78       0.040367
     21 H4          -1.3390    -1.7430    -0.0100 ha         1 B78       0.129000
     22 H6          -4.8830     0.7070     0.0340 ha         1 B78       0.119000
     23 H7          -3.5040     2.7420     0.0350 ha         1 B78       0.112000
     24 H9          -5.7330    -1.3630     0.9210 h1         1 B78       0.041033
     25 H9A         -5.7480    -1.3520    -0.8640 h1         1 B78       0.041033
     26 H9B         -5.7100    -2.8920     0.0190 h1         1 B78       0.041033
     27 H11          0.8680    -1.4850     0.8640 h1         1 B78       0.048700
     28 H11A         0.8540    -1.4740    -0.9150 h1         1 B78       0.048700
     29 H13          2.8330    -0.5370     2.1280 ha         1 B78       0.128000
     30 H14          5.2750    -0.0200     2.0260 h4         1 B78       0.019100
     31 H16          5.2420     0.0050    -2.1300 h4         1 B78       0.019100
     32 H17          2.7990    -0.5110    -2.1990 ha         1 B78       0.128000
@<TRIPOS>BOND
     1     1     2 1   
     2     1    18 1   
     3     1    19 1   
     4     1    20 1   
     5     2     3 ar  
     6     2     7 ar  
     7     3     4 ar  
     8     3    10 1   
     9     4     5 ar  
    10     4    21 1   
    11     5     6 ar  
    12     5     8 1   
    13     6     7 ar  
    14     6    22 1   
    15     7    23 1   
    16     8     9 1   
    17     9    24 1   
    18     9    25 1   
    19     9    26 1   
    20    10    11 1   
    21    11    12 1   
    22    11    27 1   
    23    11    28 1   
    24    12    13 ar  
    25    12    17 ar  
    26    13    14 ar  
    27    13    29 1   
    28    14    15 ar  
    29    14    30 1   
    30    15    16 ar  
    31    16    17 ar  
    32    16    31 1   
    33    17    32 1   
@<TRIPOS>SUBSTRUCTURE
     1 B78         1 TEMP              0 ****  ****    0 ROOT
