@<TRIPOS>MOLECULE
B79
   77    81     1     0     0
SMALL
No Charge or Current Charge


@<TRIPOS>ATOM
      1 N           -7.7940    -5.3850   -22.6630 ns         1 B79      -0.169000
      2 C          -14.1260    -3.7630   -22.7070 c3         1 B79       0.148900
      3 O          -13.3540    -4.7850   -23.3630 os         1 B79      -0.340100
      4 C1         -11.9920    -4.9120   -23.1760 ca         1 B79       0.125100
      5 C10         -1.5090    -5.2240   -24.2890 cy         1 B79       0.165500
      6 C11         -0.7180    -4.5860   -25.4780 c3         1 B79       0.189800
      7 C12         -2.4090    -3.6330   -27.0400 c3         1 B79       0.148100
      8 C13         -0.2640    -4.4490   -27.9020 c3         1 B79       0.148100
      9 C14         -1.9980    -6.7150   -24.2980 cy         1 B79      -0.019400
     10 C15         -3.0880    -6.1680   -23.2860 cy         1 B79       0.141500
     11 C16         -4.4340    -6.9630   -23.1930 c3         1 B79       0.125000
     12 C17         -2.4300    -7.3400   -25.6440 ca         1 B79      -0.065300
     13 C18         -1.6880    -8.4250   -26.1540 ca         1 B79      -0.086000
     14 C19         -2.0370    -9.0250   -27.3770 ca         1 B79      -0.095000
     15 C2         -11.2550    -4.0570   -22.3300 ca         1 B79      -0.155500
     16 C20         -3.1350    -8.5460   -28.1110 ca         1 B79       0.026000
     17 C21         -3.8820    -7.4640   -27.6140 ca         1 B79      -0.095000
     18 C22         -3.5320    -6.8650   -26.3920 ca         1 B79      -0.086000
     19 C23         -3.4910    -9.1550   -29.3590 cg         1 B79      -0.092000
     20 C24         -3.7970    -9.6620   -30.4260 ch         1 B79      -0.118000
     21 C25         -4.1600   -10.2390   -31.6770 ca         1 B79       0.034000
     22 C26         -5.3520    -9.8480   -32.3170 ca         1 B79      -0.090000
     23 C27         -5.7100   -10.4170   -33.5530 ca         1 B79      -0.113500
     24 C28         -4.8780   -11.3790   -34.1510 ca         1 B79      -0.105000
     25 C29         -3.6880   -11.7720   -33.5150 ca         1 B79      -0.113500
     26 C3          -9.8690    -4.2390   -22.1810 ca         1 B79      -0.090500
     27 C30         -3.3290   -11.2030   -32.2800 ca         1 B79      -0.090000
     28 C31         -9.9410    -6.1230   -23.7120 ca         1 B79      -0.090500
     29 C32        -11.3280    -5.9410   -23.8600 ca         1 B79      -0.155500
     30 C4          -9.1980    -5.2680   -22.8690 ca         1 B79      -0.058000
     31 C5          -6.8200    -6.2040   -23.2250 c          1 B79       0.666100
     32 C6          -5.2480    -5.1750   -21.5320 c3         1 B79       0.103000
     33 C7          -5.2550    -3.6570   -21.8240 c3         1 B79      -0.099400
     34 C8          -4.7060    -3.2300   -23.2080 c3         1 B79      -0.068400
     35 C9          -3.2180    -3.5480   -23.4400 c3         1 B79       0.165800
     36 N1          -5.5020    -6.0200   -22.7310 n          1 B79      -0.418800
     37 N2          -2.9420    -4.8650   -24.0300 nq         1 B79      -0.683600
     38 N3          -1.2980    -4.5930   -26.8550 n3         1 B79      -0.699600
     39 O1          -7.0640    -7.0320   -24.0940 o          1 B79      -0.624100
     40 H1          -7.4340    -4.7420   -21.9720 hn         1 B79       0.145000
     41 H2         -15.1820    -3.8420   -22.9950 h1         1 B79       0.039033
     42 H3         -14.0620    -3.8660   -21.6160 h1         1 B79       0.039033
     43 H4         -13.7700    -2.7640   -22.9890 h1         1 B79       0.039033
     44 H5          -0.8880    -5.0470   -23.4010 h1         1 B79       0.022700
     45 H6           0.2390    -5.1250   -25.4960 h1         1 B79       0.030200
     46 H7          -0.4810    -3.5530   -25.1890 h1         1 B79       0.030200
     47 H8          -3.2430    -3.8440   -26.3620 h1         1 B79       0.031700
     48 H9          -2.0710    -2.6030   -26.8590 h1         1 B79       0.031700
     49 H10         -2.8010    -3.6890   -28.0640 h1         1 B79       0.031700
     50 H11          0.4990    -5.2320   -27.8060 h1         1 B79       0.031700
     51 H12         -0.7100    -4.5360   -28.9020 h1         1 B79       0.031700
     52 H13          0.2330    -3.4710   -27.8310 h1         1 B79       0.031700
     53 H14         -1.2860    -7.3740   -23.7900 hc         1 B79       0.055700
     54 H15         -2.6680    -6.1090   -22.2740 h1         1 B79       0.025700
     55 H16         -4.6800    -7.3840   -24.1720 h1         1 B79       0.069700
     56 H17         -4.3180    -7.7850   -22.4760 h1         1 B79       0.069700
     57 H18         -0.8310    -8.8080   -25.6030 ha         1 B79       0.126500
     58 H19         -1.4510    -9.8600   -27.7530 ha         1 B79       0.119500
     59 H20        -11.7370    -3.2510   -21.7840 ha         1 B79       0.122000
     60 H21         -4.7320    -7.0820   -28.1750 ha         1 B79       0.119500
     61 H22         -4.1210    -6.0260   -26.0340 ha         1 B79       0.126500
     62 H23         -6.0000    -9.1040   -31.8590 ha         1 B79       0.119000
     63 H24         -6.6310   -10.1120   -34.0450 ha         1 B79       0.113500
     64 H25         -5.1560   -11.8190   -35.1070 ha         1 B79       0.112000
     65 H26         -3.0440   -12.5160   -33.9780 ha         1 B79       0.113500
     66 H27         -9.3130    -3.5710   -21.5260 ha         1 B79       0.121000
     67 H28         -2.4070   -11.5110   -31.7930 ha         1 B79       0.119000
     68 H29         -9.4700    -6.9360   -24.2550 ha         1 B79       0.121000
     69 H30        -11.8920    -6.6050   -24.5110 ha         1 B79       0.122000
     70 H31         -5.9940    -5.4000   -20.7590 h1         1 B79       0.045700
     71 H32         -4.2800    -5.4400   -21.0930 h1         1 B79       0.045700
     72 H33         -4.6950    -3.1430   -21.0330 hc         1 B79       0.038200
     73 H34         -5.3100    -3.6560   -24.0180 hc         1 B79       0.051200
     74 H35         -2.6630    -3.4420   -22.4980 h1         1 B79       0.028200
     75 H36         -2.8240    -2.7950   -24.1350 h1         1 B79       0.028200
     76 H39         -6.2840    -3.2890   -21.7470 hc         1 B79       0.038200
     77 H40         -4.8270    -2.1430   -23.2860 hc         1 B79       0.051200
@<TRIPOS>BOND
     1     1    30 1   
     2     1    31 1   
     3     1    40 1   
     4     2     3 1   
     5     2    41 1   
     6     2    42 1   
     7     2    43 1   
     8     3     4 1   
     9     4    15 ar  
    10     4    29 ar  
    11     5     6 1   
    12     5     9 1   
    13     5    37 1   
    14     5    44 1   
    15     6    38 1   
    16     6    45 1   
    17     6    46 1   
    18     7    38 1   
    19     7    47 1   
    20     7    48 1   
    21     7    49 1   
    22     8    38 1   
    23     8    50 1   
    24     8    51 1   
    25     8    52 1   
    26     9    10 1   
    27     9    12 1   
    28     9    53 1   
    29    10    11 1   
    30    10    37 1   
    31    10    54 1   
    32    11    36 1   
    33    11    55 1   
    34    11    56 1   
    35    12    13 ar  
    36    12    18 ar  
    37    13    14 ar  
    38    13    57 1   
    39    14    16 ar  
    40    14    58 1   
    41    15    26 ar  
    42    15    59 1   
    43    16    17 ar  
    44    16    19 1   
    45    17    18 ar  
    46    17    60 1   
    47    18    61 1   
    48    19    20 3   
    49    20    21 1   
    50    21    22 ar  
    51    21    27 ar  
    52    22    23 ar  
    53    22    62 1   
    54    23    24 ar  
    55    23    63 1   
    56    24    25 ar  
    57    24    64 1   
    58    25    27 ar  
    59    25    65 1   
    60    26    30 ar  
    61    26    66 1   
    62    27    67 1   
    63    28    29 ar  
    64    28    30 ar  
    65    28    68 1   
    66    29    69 1   
    67    31    36 1   
    68    31    39 2   
    69    32    33 1   
    70    32    36 1   
    71    32    70 1   
    72    32    71 1   
    73    33    34 1   
    74    33    72 1   
    75    33    76 1   
    76    34    35 1   
    77    34    73 1   
    78    34    77 1   
    79    35    37 1   
    80    35    74 1   
    81    35    75 1   
@<TRIPOS>SUBSTRUCTURE
     1 B79         1 TEMP              0 ****  ****    0 ROOT
