@<TRIPOS>MOLECULE
B79
   77    81     1     0     0
SMALL
abcg2


@<TRIPOS>ATOM
      1 N           -7.4950    -5.7950   -22.4210 ns         1 B79      -0.169000
      2 C          -12.8630    -2.6390   -23.9100 c3         1 B79       0.148900
      3 O          -12.3960    -3.9250   -24.2600 os         1 B79      -0.340100
      4 C1         -11.1950    -4.3190   -23.7890 ca         1 B79       0.125100
      5 C10         -1.9270    -4.9520   -24.5390 cy         1 B79       0.165500
      6 C11         -1.7100    -4.0780   -25.7640 c3         1 B79       0.189800
      7 C12         -3.8380    -3.1290   -26.3570 c3         1 B79       0.148100
      8 C13         -2.2590    -3.6670   -28.0500 c3         1 B79       0.148100
      9 C14         -1.9910    -6.5000   -24.5840 cy         1 B79      -0.019400
     10 C15         -3.0090    -6.3210   -23.4260 cy         1 B79       0.141500
     11 C16         -4.2490    -7.1960   -23.3320 c3         1 B79       0.125000
     12 C17         -2.4160    -7.1840   -25.8460 ca         1 B79      -0.065300
     13 C18         -1.5670    -8.1410   -26.4000 ca         1 B79      -0.086000
     14 C19         -1.8910    -8.8180   -27.5640 ca         1 B79      -0.095000
     15 C2         -10.3740    -3.5450   -22.9760 ca         1 B79      -0.155500
     16 C20         -3.1000    -8.5570   -28.2120 ca         1 B79       0.026000
     17 C21         -3.9630    -7.6030   -27.6610 ca         1 B79      -0.095000
     18 C22         -3.6220    -6.9260   -26.5050 ca         1 B79      -0.086000
     19 C23         -3.4420    -9.2540   -29.4030 cg         1 B79      -0.092000
     20 C24         -3.7180    -9.8620   -30.4100 ch         1 B79      -0.118000
     21 C25         -4.0240   -10.5870   -31.5950 ca         1 B79       0.034000
     22 C26         -5.2160   -10.3510   -32.2890 ca         1 B79      -0.090000
     23 C27         -5.5020   -11.0620   -33.4430 ca         1 B79      -0.113500
     24 C28         -4.6090   -12.0140   -33.9190 ca         1 B79      -0.105000
     25 C29         -3.4240   -12.2540   -33.2340 ca         1 B79      -0.113500
     26 C3          -9.1460    -4.0440   -22.5590 ca         1 B79      -0.090500
     27 C30         -3.1290   -11.5470   -32.0800 ca         1 B79      -0.090000
     28 C31         -9.5590    -6.0950   -23.7160 ca         1 B79      -0.090500
     29 C32        -10.7720    -5.5980   -24.1540 ca         1 B79      -0.155500
     30 C4          -8.7220    -5.3150   -22.9180 ca         1 B79      -0.058000
     31 C5          -6.5110    -6.3280   -23.2180 c          1 B79       0.666100
     32 C6          -5.0360    -6.1760   -21.2250 c3         1 B79       0.103000
     33 C7          -4.9690    -4.6620   -20.9450 c3         1 B79      -0.099400
     34 C8          -4.6510    -3.7460   -22.1240 c3         1 B79      -0.068400
     35 C9          -3.2870    -3.9100   -22.7850 c3         1 B79       0.165800
     36 N1          -5.3210    -6.5550   -22.5980 n          1 B79      -0.418800
     37 N2          -3.2000    -4.9240   -23.8150 nq         1 B79      -0.683600
     38 N3          -2.7710    -4.0250   -26.7460 n3         1 B79      -0.699600
     39 O1          -6.7180    -6.5950   -24.3950 o          1 B79      -0.624100
     40 H1          -7.2530    -5.4550   -21.5060 hn         1 B79       0.145000
     41 H2         -13.8360    -2.5240   -24.3800 h1         1 B79       0.039033
     42 H3         -12.9810    -2.5260   -22.8280 h1         1 B79       0.039033
     43 H4         -12.2010    -1.8490   -24.2750 h1         1 B79       0.039033
     44 H5          -1.0940    -4.7000   -23.8590 h1         1 B79       0.022700
     45 H6          -0.8080    -4.4700   -26.2440 h1         1 B79       0.030200
     46 H7          -1.4410    -3.0620   -25.4210 h1         1 B79       0.030200
     47 H8          -4.2770    -3.4480   -25.4140 h1         1 B79       0.031700
     48 H9          -3.5000    -2.0850   -26.2420 h1         1 B79       0.031700
     49 H10         -4.6260    -3.1400   -27.1110 h1         1 B79       0.031700
     50 H11         -1.5180    -4.3970   -28.3800 h1         1 B79       0.031700
     51 H12         -3.0690    -3.6640   -28.7810 h1         1 B79       0.031700
     52 H13         -1.7850    -2.6720   -28.0780 h1         1 B79       0.031700
     53 H14         -1.0580    -6.9590   -24.2550 hc         1 B79       0.055700
     54 H15         -2.4430    -6.3840   -22.4820 h1         1 B79       0.025700
     55 H16         -4.6220    -7.4540   -24.3170 h1         1 B79       0.069700
     56 H17         -3.9750    -8.1340   -22.8380 h1         1 B79       0.069700
     57 H18         -0.6270    -8.3660   -25.9100 ha         1 B79       0.126500
     58 H19         -1.2090    -9.5530   -27.9720 ha         1 B79       0.119500
     59 H20        -10.6610    -2.5500   -22.6630 ha         1 B79       0.122000
     60 H21         -4.9070    -7.3910   -28.1480 ha         1 B79       0.119500
     61 H22         -4.3020    -6.1880   -26.1090 ha         1 B79       0.126500
     62 H23         -5.9120    -9.6100   -31.9190 ha         1 B79       0.119000
     63 H24         -6.4270   -10.8720   -33.9720 ha         1 B79       0.113500
     64 H25         -4.8370   -12.5680   -34.8210 ha         1 B79       0.112000
     65 H26         -2.7250   -12.9940   -33.6010 ha         1 B79       0.113500
     66 H27         -8.5100    -3.4230   -21.9380 ha         1 B79       0.121000
     67 H28         -2.2050   -11.7340   -31.5490 ha         1 B79       0.119000
     68 H29         -9.2710    -7.0990   -23.9920 ha         1 B79       0.121000
     69 H30        -11.4120    -6.2110   -24.7770 ha         1 B79       0.122000
     70 H31         -5.7490    -6.6460   -20.5410 h1         1 B79       0.045700
     71 H32         -4.0760    -6.6270   -20.9790 h1         1 B79       0.045700
     72 H33         -4.2230    -4.5060   -20.1620 hc         1 B79       0.038200
     73 H34         -5.4290    -3.8130   -22.8890 hc         1 B79       0.051200
     74 H35         -2.5150    -4.0740   -22.0120 h1         1 B79       0.028200
     75 H36         -3.0340    -2.9620   -23.2670 h1         1 B79       0.028200
     76 H39         -5.9090    -4.3180   -20.5050 hc         1 B79       0.038200
     77 H40         -4.7060    -2.7250   -21.7400 hc         1 B79       0.051200
@<TRIPOS>BOND
     1     1    30 1   
     2     1    31 1   
     3     1    40 1   
     4     2     3 1   
     5     2    41 1   
     6     2    42 1   
     7     2    43 1   
     8     3     4 1   
     9     4    15 ar  
    10     4    29 ar  
    11     5     6 1   
    12     5     9 1   
    13     5    37 1   
    14     5    44 1   
    15     6    38 1   
    16     6    45 1   
    17     6    46 1   
    18     7    38 1   
    19     7    47 1   
    20     7    48 1   
    21     7    49 1   
    22     8    38 1   
    23     8    50 1   
    24     8    51 1   
    25     8    52 1   
    26     9    10 1   
    27     9    12 1   
    28     9    53 1   
    29    10    11 1   
    30    10    37 1   
    31    10    54 1   
    32    11    36 1   
    33    11    55 1   
    34    11    56 1   
    35    12    13 ar  
    36    12    18 ar  
    37    13    14 ar  
    38    13    57 1   
    39    14    16 ar  
    40    14    58 1   
    41    15    26 ar  
    42    15    59 1   
    43    16    17 ar  
    44    16    19 1   
    45    17    18 ar  
    46    17    60 1   
    47    18    61 1   
    48    19    20 3   
    49    20    21 1   
    50    21    22 ar  
    51    21    27 ar  
    52    22    23 ar  
    53    22    62 1   
    54    23    24 ar  
    55    23    63 1   
    56    24    25 ar  
    57    24    64 1   
    58    25    27 ar  
    59    25    65 1   
    60    26    30 ar  
    61    26    66 1   
    62    27    67 1   
    63    28    29 ar  
    64    28    30 ar  
    65    28    68 1   
    66    29    69 1   
    67    31    36 1   
    68    31    39 2   
    69    32    33 1   
    70    32    36 1   
    71    32    70 1   
    72    32    71 1   
    73    33    34 1   
    74    33    72 1   
    75    33    76 1   
    76    34    35 1   
    77    34    73 1   
    78    34    77 1   
    79    35    37 1   
    80    35    74 1   
    81    35    75 1   
@<TRIPOS>SUBSTRUCTURE
     1 B79         1 TEMP              0 ****  ****    0 ROOT
