@<TRIPOS>MOLECULE
B7B
   59    63     1     0     0
SMALL
abcg2


@<TRIPOS>ATOM
      1 C4          -1.5960    -0.2490     0.0000 ca         1 B7B       0.372900
      2 C5          -1.6160     0.8530     0.8650 ca         1 B7B      -0.212000
      3 C6          -0.3920     1.4490     1.1180 ca         1 B7B       0.129900
      4 N1           0.7450     1.0070     0.6040 nb         1 B7B      -0.220000
      5 N3          -0.4650    -0.6940    -0.5070 nb         1 B7B      -0.221000
      6 CAM         -4.3280    -2.7900     0.0180 c5         1 B7B      -0.085900
      7 CAJ         -4.4680    -3.8440     1.1340 c5         1 B7B      -0.078400
      8 CAK         -3.4330    -3.4570     2.2120 c5         1 B7B      -0.078400
      9 CAN         -2.5070    -2.4570     1.5250 c5         1 B7B      -0.085900
     10 CBA         -3.4620    -1.6790     0.6230 c5         1 B7B       0.210500
     11 NBE         -2.7810    -0.8870    -0.4020 nh         1 B7B      -0.770300
     12 CBC         -3.6330    -0.0480    -1.2370 c5         1 B7B       0.224500
     13 CAP         -3.0280     0.2380    -2.6160 c5         1 B7B      -0.080400
     14 CAL         -2.2280     1.5330    -2.4760 c5         1 B7B      -0.081400
     15 CAO         -2.9890     2.3630    -1.4310 c5         1 B7B      -0.068400
     16 CBB         -3.9430     1.3820    -0.6980 c5         1 B7B      -0.182700
     17 CAU         -3.9560     1.5200     0.8070 c          1 B7B       0.574000
     18 OAD         -4.9680     1.8370     1.4130 o          1 B7B      -0.546000
     19 NBD         -2.7950     1.3000     1.4850 n          1 B7B      -0.219400
     20 CAA         -2.8170     1.4380     2.9360 c3         1 B7B       0.091300
     21 C2           0.6620    -0.0580    -0.1830 ca         1 B7B       0.380900
     22 NAS          1.7850    -0.5950    -0.7430 nu         1 B7B      -0.925900
     23 CAV          3.1090    -0.1960    -0.7190 ca         1 B7B       0.343000
     24 CAE          4.0170    -1.0100    -1.4100 ca         1 B7B      -0.171000
     25 CAG          5.3570    -0.6940    -1.4630 ca         1 B7B      -0.038500
     26 CAW          5.8550     0.4400    -0.8200 ca         1 B7B      -0.187600
     27 CAT          7.3140     0.7290    -0.9240 c          1 B7B       0.622700
     28 OAC          8.0200     0.1250    -1.7230 o          1 B7B      -0.612100
     29 NAB          7.8070     1.6760    -0.1090 nt         1 B7B      -0.605000
     30 CAH          4.9480     1.2470    -0.1390 ca         1 B7B      -0.038500
     31 CAF          3.5970     0.9470    -0.0790 ca         1 B7B      -0.171000
     32 H1          -0.3260     2.3180     1.7650 h4         1 B7B       0.031100
     33 H3          -5.2960    -2.4350    -0.3360 hc         1 B7B       0.053200
     34 H4          -5.4760    -3.8630     1.5480 hc         1 B7B       0.044200
     35 H5          -4.2740    -4.8430     0.7410 hc         1 B7B       0.044200
     36 H6          -3.9290    -2.9750     3.0570 hc         1 B7B       0.044200
     37 H7          -2.8950    -4.3170     2.6090 hc         1 B7B       0.044200
     38 H8          -1.9650    -1.8280     2.2340 hc         1 B7B       0.053200
     39 H9          -1.7680    -2.9760     0.9060 hc         1 B7B       0.053200
     40 H10         -4.1010    -1.0580     1.2700 h1         1 B7B       0.039700
     41 H11         -4.5690    -0.5950    -1.3510 h1         1 B7B       0.072700
     42 H12         -2.4410    -0.6060    -2.9800 hc         1 B7B       0.059700
     43 H13         -3.8470     0.3920    -3.3220 hc         1 B7B       0.059700
     44 H14         -1.2090     1.3320    -2.1430 hc         1 B7B       0.047700
     45 H15         -2.1420     2.0600    -3.4270 hc         1 B7B       0.047700
     46 H16         -2.3090     2.8790    -0.7540 hc         1 B7B       0.050200
     47 H17         -3.5860     3.1390    -1.9110 hc         1 B7B       0.050200
     48 H18         -4.9630     1.6100    -1.0080 hc         1 B7B       0.084700
     49 H19         -2.9960     2.4690     3.2390 h1         1 B7B       0.046367
     50 H20         -3.5930     0.8090     3.3720 h1         1 B7B       0.046367
     51 H21         -1.8590     1.1220     3.3390 h1         1 B7B       0.046367
     52 H22          1.5920    -1.4150    -1.2980 hn         1 B7B       0.515000
     53 H23          3.6620    -1.9020    -1.9120 ha         1 B7B       0.133500
     54 H24          6.0280    -1.3420    -2.0090 ha         1 B7B       0.123000
     55 H25          7.2770     2.0860     0.6390 hn         1 B7B       0.312500
     56 H26          8.7930     1.8790    -0.1290 hn         1 B7B       0.312500
     57 H27          5.2670     2.1570     0.3540 ha         1 B7B       0.123000
     58 H28          2.9320     1.6020     0.4590 ha         1 B7B       0.133500
     59 H2          -3.7970    -3.2030    -0.8430 hc         1 B7B       0.053200
@<TRIPOS>BOND
     1     1     2 ar  
     2     1     5 ar  
     3     1    11 1   
     4     2     3 ar  
     5     2    19 1   
     6     3     4 ar  
     7     3    32 1   
     8     4    21 ar  
     9     5    21 ar  
    10     6     7 1   
    11     6    10 1   
    12     6    33 1   
    13     6    59 1   
    14     7     8 1   
    15     7    34 1   
    16     7    35 1   
    17     8     9 1   
    18     8    36 1   
    19     8    37 1   
    20     9    10 1   
    21     9    38 1   
    22     9    39 1   
    23    10    11 1   
    24    10    40 1   
    25    11    12 1   
    26    12    13 1   
    27    12    16 1   
    28    12    41 1   
    29    13    14 1   
    30    13    42 1   
    31    13    43 1   
    32    14    15 1   
    33    14    44 1   
    34    14    45 1   
    35    15    16 1   
    36    15    46 1   
    37    15    47 1   
    38    16    17 1   
    39    16    48 1   
    40    17    18 2   
    41    17    19 1   
    42    19    20 1   
    43    20    49 1   
    44    20    50 1   
    45    20    51 1   
    46    21    22 1   
    47    22    23 1   
    48    22    52 1   
    49    23    24 ar  
    50    23    31 ar  
    51    24    25 ar  
    52    24    53 1   
    53    25    26 ar  
    54    25    54 1   
    55    26    27 1   
    56    26    30 ar  
    57    27    28 2   
    58    27    29 1   
    59    29    55 1   
    60    29    56 1   
    61    30    31 ar  
    62    30    57 1   
    63    31    58 1   
@<TRIPOS>SUBSTRUCTURE
     1 B7B         1 TEMP              0 ****  ****    0 ROOT
