@<TRIPOS>MOLECULE
B7B
   59    63     1     0     0
SMALL
No Charge or Current Charge


@<TRIPOS>ATOM
      1 C4          -1.7560    -0.0380     0.2110 ca         1 B7B       0.372900
      2 C5          -1.6770     0.9640     1.1990 ca         1 B7B      -0.212000
      3 C6          -0.3860     1.4830     1.4360 ca         1 B7B       0.129900
      4 N1           0.7130     0.9660     0.8560 nb         1 B7B      -0.220000
      5 N3          -0.6600    -0.5750    -0.3580 nb         1 B7B      -0.221000
      6 CAM         -3.3400    -2.9930    -0.5440 c5         1 B7B      -0.085900
      7 CAJ         -3.5170    -4.2480     0.3700 c5         1 B7B      -0.078400
      8 CAK         -3.3190    -3.7250     1.8330 c5         1 B7B      -0.078400
      9 CAN         -2.7000    -2.3160     1.6410 c5         1 B7B      -0.085900
     10 CBA         -3.5610    -1.8250     0.4470 c5         1 B7B       0.210500
     11 NBE         -2.9880    -0.5880    -0.1770 nh         1 B7B      -0.770300
     12 CBC         -4.0070     0.1800    -0.9550 c5         1 B7B       0.224500
     13 CAP         -3.5200     0.3470    -2.4230 c5         1 B7B      -0.080400
     14 CAL         -2.5010     1.5280    -2.3900 c5         1 B7B      -0.081400
     15 CAO         -2.9940     2.4690    -1.2450 c5         1 B7B      -0.068400
     16 CBB         -4.0990     1.6520    -0.4800 c5         1 B7B      -0.182700
     17 CAU         -4.1080     1.8020     1.0700 c          1 B7B       0.574000
     18 OAD         -5.1070     2.1610     1.6840 o          1 B7B      -0.546000
     19 NBD         -2.8460     1.6450     1.7270 n          1 B7B      -0.219400
     20 CAA         -2.7680     2.1070     3.1340 c3         1 B7B       0.091300
     21 C2           0.5180    -0.0450    -0.0090 ca         1 B7B       0.380900
     22 NAS          1.6270    -0.6430    -0.5990 nu         1 B7B      -0.925900
     23 CAV          2.9950    -0.3570    -0.6340 ca         1 B7B       0.343000
     24 CAE          3.8930    -1.4110    -0.8510 ca         1 B7B      -0.171000
     25 CAG          5.2780    -1.1740    -0.9080 ca         1 B7B      -0.038500
     26 CAW          5.7910     0.1330    -0.7580 ca         1 B7B      -0.187600
     27 CAT          7.2860     0.3580    -0.8230 c          1 B7B       0.622700
     28 OAC          8.0810    -0.5490    -1.0040 o          1 B7B      -0.612100
     29 NAB          7.7520     1.6160    -0.6750 nt         1 B7B      -0.605000
     30 CAH          4.8800     1.1960    -0.5560 ca         1 B7B      -0.038500
     31 CAF          3.4970     0.9480    -0.5000 ca         1 B7B      -0.171000
     32 H1          -0.2210     2.3290     2.1020 h4         1 B7B       0.031100
     33 H3          -4.0530    -2.9750    -1.3750 hc         1 B7B       0.053200
     34 H4          -4.5100    -4.6960     0.2480 hc         1 B7B       0.044200
     35 H5          -2.7860    -5.0250     0.1150 hc         1 B7B       0.044200
     36 H6          -4.2800    -3.6610     2.3580 hc         1 B7B       0.044200
     37 H7          -2.6750    -4.3830     2.4270 hc         1 B7B       0.044200
     38 H8          -2.8080    -1.6830     2.5290 hc         1 B7B       0.053200
     39 H9          -1.6320    -2.3970     1.4120 hc         1 B7B       0.053200
     40 H10         -4.6160    -1.7090     0.7380 h1         1 B7B       0.039700
     41 H11         -4.9930    -0.3060    -0.9220 h1         1 B7B       0.072700
     42 H12         -3.0830    -0.5730    -2.8290 hc         1 B7B       0.059700
     43 H13         -4.3680     0.6000    -3.0690 hc         1 B7B       0.059700
     44 H14         -1.4820     1.1770    -2.2040 hc         1 B7B       0.047700
     45 H15         -2.4630     2.0500    -3.3530 hc         1 B7B       0.047700
     46 H16         -2.1600     2.7890    -0.6130 hc         1 B7B       0.050200
     47 H17         -3.4200     3.3920    -1.6550 hc         1 B7B       0.050200
     48 H18         -5.0740     2.0260    -0.8100 hc         1 B7B       0.084700
     49 H19         -2.7470     3.2030     3.1600 h1         1 B7B       0.046367
     50 H20         -3.6370     1.7470     3.7000 h1         1 B7B       0.046367
     51 H21         -1.8660     1.7180     3.6220 h1         1 B7B       0.046367
     52 H22          1.3880    -1.5250    -1.0490 hn         1 B7B       0.515000
     53 H23          3.5230    -2.4250    -0.9680 ha         1 B7B       0.133500
     54 H24          5.9510    -2.0140    -1.0700 ha         1 B7B       0.123000
     55 H25          7.1150     2.3820    -0.5240 hn         1 B7B       0.312500
     56 H26          8.7470     1.7780    -0.7170 hn         1 B7B       0.312500
     57 H27          5.2250     2.2210    -0.4480 ha         1 B7B       0.123000
     58 H28          2.8210     1.7860    -0.3710 ha         1 B7B       0.133500
     59 H2          -2.3340    -2.9700    -0.9800 hc         1 B7B       0.053200
@<TRIPOS>BOND
     1     1     2 ar  
     2     1     5 ar  
     3     1    11 1   
     4     2     3 ar  
     5     2    19 1   
     6     3     4 ar  
     7     3    32 1   
     8     4    21 ar  
     9     5    21 ar  
    10     6     7 1   
    11     6    10 1   
    12     6    33 1   
    13     6    59 1   
    14     7     8 1   
    15     7    34 1   
    16     7    35 1   
    17     8     9 1   
    18     8    36 1   
    19     8    37 1   
    20     9    10 1   
    21     9    38 1   
    22     9    39 1   
    23    10    11 1   
    24    10    40 1   
    25    11    12 1   
    26    12    13 1   
    27    12    16 1   
    28    12    41 1   
    29    13    14 1   
    30    13    42 1   
    31    13    43 1   
    32    14    15 1   
    33    14    44 1   
    34    14    45 1   
    35    15    16 1   
    36    15    46 1   
    37    15    47 1   
    38    16    17 1   
    39    16    48 1   
    40    17    18 2   
    41    17    19 1   
    42    19    20 1   
    43    20    49 1   
    44    20    50 1   
    45    20    51 1   
    46    21    22 1   
    47    22    23 1   
    48    22    52 1   
    49    23    24 ar  
    50    23    31 ar  
    51    24    25 ar  
    52    24    53 1   
    53    25    26 ar  
    54    25    54 1   
    55    26    27 1   
    56    26    30 ar  
    57    27    28 2   
    58    27    29 1   
    59    29    55 1   
    60    29    56 1   
    61    30    31 ar  
    62    30    57 1   
    63    31    58 1   
@<TRIPOS>SUBSTRUCTURE
     1 B7B         1 TEMP              0 ****  ****    0 ROOT
