@<TRIPOS>MOLECULE
B7D
   28    29     1     0     0
SMALL
bcc


@<TRIPOS>ATOM
      1 C01         -2.7210    -0.3570    -1.0290 c6         1 B7D       0.518700
      2 C02         -3.5310    -0.6560     0.2520 c3         1 B7D       0.089100
      3 CL03        -4.9600     0.3880     0.3100 cl         1 B7D      -0.134400
      4 CL04        -4.0270    -2.3600     0.2170 cl         1 B7D      -0.134400
      5 N05         -1.5290    -1.1600    -1.0620 nu         1 B7D      -0.777600
      6 C06         -0.2960    -0.7340    -0.7180 ca         1 B7D       0.342600
      7 C07          0.7910    -1.6200    -0.7990 ca         1 B7D      -0.247000
      8 C08          2.0610    -1.2110    -0.4710 ca         1 B7D       0.212400
      9 CL09         3.3210    -2.3730    -0.5780 cl         1 B7D      -0.051400
     10 C10          2.3160     0.1050    -0.0600 ca         1 B7D      -0.340500
     11 S11          3.9340     0.7000     0.3340 sy         1 B7D       1.297200
     12 N12          4.2870    -0.1840     1.6750 n8         1 B7D      -0.906700
     13 O13          4.8810     0.2980    -0.6910 o          1 B7D      -0.610800
     14 O14          3.7900     2.1200     0.6210 o          1 B7D      -0.610800
     15 C15          1.2560     0.9890     0.0170 ca         1 B7D       0.115000
     16 C16         -0.0270     0.5770    -0.2930 ca         1 B7D      -0.382500
     17 S17         -1.3350     1.7360    -0.1370 sy         1 B7D       1.317200
     18 O18         -1.8400     1.6980     1.2270 o          1 B7D      -0.597300
     19 O19         -0.9530     3.0260    -0.6780 o          1 B7D      -0.597300
     20 N20         -2.3670     1.0270    -1.2160 n7         1 B7D      -0.845100
     21 H01         -3.3480    -0.6270    -1.8800 h2         1 B7D       0.096700
     22 H02         -2.9590    -0.5020     1.1630 h2         1 B7D       0.134700
     23 HN05        -1.6220    -2.1020    -1.4090 hn         1 B7D       0.468800
     24 H07          0.6200    -2.6390    -1.1220 ha         1 B7D       0.152000
     25 HN12         5.2860    -0.2990     1.8080 hn         1 B7D       0.425300
     26 HN1A         3.8440     0.1700     2.5150 hn         1 B7D       0.425300
     27 H15          1.4330     2.0120     0.3210 ha         1 B7D       0.179000
     28 HN20        -3.1050     1.6350    -1.5540 hn         1 B7D       0.462800
@<TRIPOS>BOND
     1     1     2 1   
     2     1     5 1   
     3     1    20 1   
     4     1    21 1   
     5     2     3 1   
     6     2     4 1   
     7     2    22 1   
     8     5     6 1   
     9     5    23 1   
    10     6     7 ar  
    11     6    16 ar  
    12     7     8 ar  
    13     7    24 1   
    14     8     9 1   
    15     8    10 ar  
    16    10    11 1   
    17    10    15 ar  
    18    11    12 1   
    19    11    13 2   
    20    11    14 2   
    21    12    25 1   
    22    12    26 1   
    23    15    16 ar  
    24    15    27 1   
    25    16    17 1   
    26    17    18 2   
    27    17    19 2   
    28    17    20 1   
    29    20    28 1   
@<TRIPOS>SUBSTRUCTURE
     1 B7D         1 TEMP              0 ****  ****    0 ROOT
