@<TRIPOS>MOLECULE
B7D
   28    29     1     0     0
SMALL
No Charge or Current Charge


@<TRIPOS>ATOM
      1 C01         -2.7620    -0.3680    -1.0430 c6         1 B7D       0.518700
      2 C02         -3.0790    -0.7220     0.4680 c3         1 B7D       0.242300
      3 Cl03        -4.6180     0.0770     1.0350 cl         1 B7D      -0.211000
      4 Cl04        -3.2420    -2.5220     0.7110 cl         1 B7D      -0.211000
      5 N05         -1.5320    -0.9360    -1.5370 nu         1 B7D      -0.971200
      6 C06         -0.2970    -0.5920    -1.0480 ca         1 B7D       0.481000
      7 C07          0.7340    -1.5280    -1.0450 ca         1 B7D      -0.229000
      8 C08          1.9930    -1.1910    -0.5330 ca         1 B7D       0.304000
      9 Cl09         3.2290    -2.4520    -0.5430 cl         1 B7D      -0.143000
     10 C10          2.2160     0.1040    -0.0220 ca         1 B7D      -0.340500
     11 S11          3.7970     0.5990     0.6370 sy         1 B7D       1.155600
     12 N12          3.9200    -0.2760     2.0040 n8         1 B7D      -1.017100
     13 O13          4.8960     0.1020    -0.1860 o          1 B7D      -0.540000
     14 O14          3.7520     1.9810     1.1070 o          1 B7D      -0.540000
     15 C15          1.1660     1.0420    -0.0270 ca         1 B7D       0.133000
     16 C16         -0.0840     0.6730    -0.5440 ca         1 B7D      -0.382500
     17 S17         -1.3950     1.8470    -0.5870 sy         1 B7D       1.175600
     18 O18         -1.8540     2.0890     0.7790 o          1 B7D      -0.526500
     19 O19         -0.9970     2.9440    -1.4700 o          1 B7D      -0.526500
     20 N20         -2.6230     1.0420    -1.3580 n7         1 B7D      -0.900300
     21 H01         -3.6130    -0.7510    -1.6330 h2         1 B7D       0.096700
     22 H02         -2.2630    -0.3830     1.1120 h2         1 B7D       0.134700
     23 HN05        -1.5930    -1.8740    -1.9310 hn         1 B7D       0.524000
     24 H07          0.5640    -2.5270    -1.4330 ha         1 B7D       0.134000
     25 HN12         4.7990    -0.7580     1.8280 hn         1 B7D       0.480500
     26 HN1A         4.2030     0.4490     2.6590 hn         1 B7D       0.480500
     27 H15          1.3160     2.0510     0.3620 ha         1 B7D       0.161000
     28 HN20        -3.4340     1.5380    -0.9990 hn         1 B7D       0.518000
@<TRIPOS>BOND
     1     1     2 1   
     2     1     5 1   
     3     1    20 1   
     4     1    21 1   
     5     2     3 1   
     6     2     4 1   
     7     2    22 1   
     8     5     6 1   
     9     5    23 1   
    10     6     7 ar  
    11     6    16 ar  
    12     7     8 ar  
    13     7    24 1   
    14     8     9 1   
    15     8    10 ar  
    16    10    11 1   
    17    10    15 ar  
    18    11    12 1   
    19    11    13 2   
    20    11    14 2   
    21    12    25 1   
    22    12    26 1   
    23    15    16 ar  
    24    15    27 1   
    25    16    17 1   
    26    17    18 2   
    27    17    19 2   
    28    17    20 1   
    29    20    28 1   
@<TRIPOS>SUBSTRUCTURE
     1 B7D         1 TEMP              0 ****  ****    0 ROOT
