@<TRIPOS>MOLECULE
B7E
   54    58     1     0     0
SMALL
abcg2


@<TRIPOS>ATOM
      1 C1          -6.1970    -1.3170     2.0930 c3         1 B7E       0.149900
      2 C3          -4.4830    -0.5210     0.6630 c6         1 B7E       0.172300
      3 C7          -1.7340    -0.0260    -0.3930 c5         1 B7E      -0.033000
      4 C8          -2.9920     0.5860    -1.0030 c6         1 B7E      -0.067400
      5 C9          -4.2440    -0.2760    -0.8230 c6         1 B7E      -0.054700
      6 C11         -5.4410     0.3880    -1.4940 c3         1 B7E      -0.082100
      7 C12         -1.2740    -1.3200    -1.1030 c5         1 B7E      -0.033100
      8 C13          0.1890    -1.3830    -0.7730 ca         1 B7E      -0.072300
      9 C14          1.0600    -2.4590    -0.7900 ca         1 B7E      -0.099000
     10 C15          2.3850    -2.2620    -0.4200 ca         1 B7E      -0.093000
     11 C16          2.8480    -1.0010    -0.0350 cp         1 B7E      -0.044000
     12 C19         -0.4620     0.8860    -0.5120 c5         1 B7E       0.173500
     13 C20         -0.3290     1.6340    -1.8650 c5         1 B7E       0.127600
     14 C22         -0.6320     3.0460    -0.2040 c2         1 B7E       0.787500
     15 N23         -0.4220     1.9690     0.4480 n2         1 B7E      -0.717900
     16 N29          6.5690    -1.3120     0.0740 nb         1 B7E      -0.172000
     17 C30          5.3010    -1.4760    -0.2750 ca         1 B7E       0.109900
     18 O2          -5.6400    -1.3180     0.8040 os         1 B7E      -0.458000
     19 C5          -3.2600    -1.1580     1.3130 c6         1 B7E      -0.106400
     20 C6          -2.0100    -0.3130     1.0910 c6         1 B7E      -0.061400
     21 C17          1.9580     0.0780    -0.0220 ca         1 B7E      -0.064000
     22 C18          0.6450    -0.1280    -0.3910 ca         1 B7E      -0.079300
     23 O21         -0.7250     2.9690    -1.5440 os         1 B7E      -0.465600
     24 N24         -0.8330     4.2750     0.3090 nv         1 B7E      -1.016200
     25 C25          4.2520    -0.8130     0.3570 cp         1 B7E      -0.130000
     26 C26          4.6350     0.0460     1.3840 ca         1 B7E       0.109900
     27 N27          5.9000     0.2240     1.7370 nb         1 B7E      -0.172000
     28 C28          6.8080    -0.4670     1.0650 ca         1 B7E       0.112900
     29 H1          -7.1470    -1.8500     2.0440 h1         1 B7E       0.026367
     30 H2          -5.5690    -1.8200     2.8360 h1         1 B7E       0.026367
     31 H3          -6.3940    -0.3000     2.4530 h1         1 B7E       0.026367
     32 H4          -4.6570     0.4620     1.1380 h1         1 B7E       0.032700
     33 H5          -3.1780     1.5650    -0.5430 hc         1 B7E       0.047700
     34 H6          -2.8570     0.7630    -2.0730 hc         1 B7E       0.047700
     35 H10         -4.0670    -1.2460    -1.3050 hc         1 B7E       0.055700
     36 H7          -5.6940     1.3270    -0.9950 hc         1 B7E       0.035700
     37 H8          -5.2210     0.6190    -2.5380 hc         1 B7E       0.035700
     38 H9          -6.3250    -0.2470    -1.4790 hc         1 B7E       0.035700
     39 H11         -1.8170    -2.2100    -0.7830 hc         1 B7E       0.059200
     40 H12         -1.4190    -1.2420    -2.1870 hc         1 B7E       0.059200
     41 H13          0.7190    -3.4480    -1.0710 ha         1 B7E       0.119000
     42 H14          3.0600    -3.1090    -0.4050 ha         1 B7E       0.115000
     43 H15          0.7090     1.6490    -2.2080 h1         1 B7E       0.069200
     44 H16         -0.9520     1.2550    -2.6730 h1         1 B7E       0.069200
     45 H21         -3.4150    -1.2700     2.3890 hc         1 B7E       0.045700
     46 H22         -3.1300    -2.1700     0.9160 hc         1 B7E       0.045700
     47 H23         -1.1500    -0.8040     1.5540 hc         1 B7E       0.058200
     48 H24         -2.1300     0.6400     1.6110 hc         1 B7E       0.058200
     49 H25          2.2970     1.0690     0.2600 ha         1 B7E       0.124000
     50 H26         -0.6320     4.3890     1.2880 hn         1 B7E       0.489000
     51 H27         -0.6170     5.0730    -0.2650 hn         1 B7E       0.489000
     52 H29          3.8900     0.5970     1.9490 h4         1 B7E       0.028100
     53 H30          7.8440    -0.3270     1.3540 h5         1 B7E       0.051100
     54 H20          5.1090    -2.1520    -1.1010 h4         1 B7E       0.028100
@<TRIPOS>BOND
     1     1    18 1   
     2     1    29 1   
     3     1    30 1   
     4     1    31 1   
     5     2     5 1   
     6     2    18 1   
     7     2    19 1   
     8     2    32 1   
     9     3     4 1   
    10     3     7 1   
    11     3    12 1   
    12     3    20 1   
    13     4     5 1   
    14     4    33 1   
    15     4    34 1   
    16     5     6 1   
    17     5    35 1   
    18     6    36 1   
    19     6    37 1   
    20     6    38 1   
    21     7     8 1   
    22     7    39 1   
    23     7    40 1   
    24     8     9 ar  
    25     8    22 ar  
    26     9    10 ar  
    27     9    41 1   
    28    10    11 ar  
    29    10    42 1   
    30    11    21 ar  
    31    11    25 1   
    32    12    13 1   
    33    12    15 1   
    34    12    22 1   
    35    13    23 1   
    36    13    43 1   
    37    13    44 1   
    38    14    15 2   
    39    14    23 1   
    40    14    24 1   
    41    16    17 ar  
    42    16    28 ar  
    43    17    25 ar  
    44    17    54 1   
    45    19    20 1   
    46    19    45 1   
    47    19    46 1   
    48    20    47 1   
    49    20    48 1   
    50    21    22 ar  
    51    21    49 1   
    52    24    50 1   
    53    24    51 1   
    54    25    26 ar  
    55    26    27 ar  
    56    26    52 1   
    57    27    28 ar  
    58    28    53 1   
@<TRIPOS>SUBSTRUCTURE
     1 B7E         1 TEMP              0 ****  ****    0 ROOT
