@<TRIPOS>MOLECULE
B7E
   54    58     1     0     0
SMALL
No Charge or Current Charge


@<TRIPOS>ATOM
      1 C1          -6.1970    -1.7460     2.1440 c3         1 B7E       0.149900
      2 C3          -4.5750    -0.5820     0.6590 c6         1 B7E       0.172300
      3 C7          -1.7560     0.0860    -0.3680 c5         1 B7E      -0.033000
      4 C8          -3.0540     0.7380    -0.9680 c6         1 B7E      -0.067400
      5 C9          -4.3110    -0.1710    -0.8700 c6         1 B7E      -0.054700
      6 C11         -5.5530     0.5120    -1.5050 c3         1 B7E      -0.082100
      7 C12         -1.2970    -1.2310    -1.1420 c5         1 B7E      -0.033100
      8 C13          0.1690    -1.2870    -0.7730 ca         1 B7E      -0.072300
      9 C14          1.0040    -2.4110    -0.7900 ca         1 B7E      -0.099000
     10 C15          2.3520    -2.2640    -0.4080 ca         1 B7E      -0.093000
     11 C16          2.8750    -1.0010    -0.0080 cp         1 B7E      -0.044000
     12 C19         -0.4260     0.9930    -0.4830 c5         1 B7E       0.173500
     13 C20         -0.2750     1.6580    -1.8840 c5         1 B7E       0.127600
     14 C22         -0.6420     3.1350    -0.2950 c2         1 B7E       0.787500
     15 N23         -0.4120     2.1390     0.4580 n2         1 B7E      -0.717900
     16 N29          6.6250    -1.5630     0.2570 nb         1 B7E      -0.172000
     17 C30          5.3330    -1.6970    -0.1040 ca         1 B7E       0.109900
     18 O2          -5.7070    -1.5040     0.8120 os         1 B7E      -0.458000
     19 C5          -3.2970    -1.1600     1.3750 c6         1 B7E      -0.106400
     20 C6          -2.0740    -0.2330     1.1450 c6         1 B7E      -0.061400
     21 C17          1.9940     0.1140    -0.0080 ca         1 B7E      -0.064000
     22 C18          0.6540    -0.0550    -0.3900 ca         1 B7E      -0.079300
     23 O21         -0.7560     2.9910    -1.6360 os         1 B7E      -0.465600
     24 N24         -0.7450     4.4090     0.0920 nv         1 B7E      -1.016200
     25 C25          4.3100    -0.8500     0.3970 cp         1 B7E      -0.130000
     26 C26          4.7380     0.1510     1.3080 ca         1 B7E       0.109900
     27 N27          6.0280     0.2900     1.6770 nb         1 B7E      -0.172000
     28 C28          6.9070    -0.5750     1.1310 ca         1 B7E       0.112900
     29 H1          -7.1110    -2.3520     2.1060 h1         1 B7E       0.026367
     30 H2          -5.4600    -2.2900     2.7460 h1         1 B7E       0.026367
     31 H3          -6.4360    -0.8010     2.6500 h1         1 B7E       0.026367
     32 H4          -4.8430     0.3460     1.1850 h1         1 B7E       0.032700
     33 H5          -3.2540     1.6900    -0.4560 hc         1 B7E       0.047700
     34 H6          -2.9020     0.9920    -2.0250 hc         1 B7E       0.047700
     35 H10         -4.1320    -1.0870    -1.4490 hc         1 B7E       0.055700
     36 H7          -5.8170     1.4340    -0.9730 hc         1 B7E       0.035700
     37 H8          -5.3680     0.7720    -2.5540 hc         1 B7E       0.035700
     38 H9          -6.4260    -0.1500    -1.4800 hc         1 B7E       0.035700
     39 H11         -1.8420    -2.1320    -0.8460 hc         1 B7E       0.059200
     40 H12         -1.4230    -1.1300    -2.2260 hc         1 B7E       0.059200
     41 H13          0.6180    -3.3830    -1.0900 ha         1 B7E       0.119000
     42 H14          2.9910    -3.1430    -0.4090 ha         1 B7E       0.115000
     43 H15          0.7810     1.7250    -2.1810 h1         1 B7E       0.069200
     44 H16         -0.8330     1.1760    -2.6960 h1         1 B7E       0.069200
     45 H21         -3.4700    -1.2480     2.4550 hc         1 B7E       0.045700
     46 H22         -3.0890    -2.1740     1.0110 hc         1 B7E       0.045700
     47 H23         -1.1950    -0.6810     1.6290 hc         1 B7E       0.058200
     48 H24         -2.2590     0.7040     1.6870 hc         1 B7E       0.058200
     49 H25          2.3460     1.1020     0.2730 ha         1 B7E       0.124000
     50 H26         -0.2530     4.5660     0.9610 hn         1 B7E       0.489000
     51 H27         -0.5060     5.0490    -0.6520 hn         1 B7E       0.489000
     52 H29          4.0340     0.8450     1.7630 h4         1 B7E       0.028100
     53 H30          7.9490    -0.4650     1.4260 h5         1 B7E       0.051100
     54 H20          5.1170    -2.4880    -0.8190 h4         1 B7E       0.028100
@<TRIPOS>BOND
     1     1    18 1   
     2     1    29 1   
     3     1    30 1   
     4     1    31 1   
     5     2     5 1   
     6     2    18 1   
     7     2    19 1   
     8     2    32 1   
     9     3     4 1   
    10     3     7 1   
    11     3    12 1   
    12     3    20 1   
    13     4     5 1   
    14     4    33 1   
    15     4    34 1   
    16     5     6 1   
    17     5    35 1   
    18     6    36 1   
    19     6    37 1   
    20     6    38 1   
    21     7     8 1   
    22     7    39 1   
    23     7    40 1   
    24     8     9 ar  
    25     8    22 ar  
    26     9    10 ar  
    27     9    41 1   
    28    10    11 ar  
    29    10    42 1   
    30    11    21 ar  
    31    11    25 1   
    32    12    13 1   
    33    12    15 1   
    34    12    22 1   
    35    13    23 1   
    36    13    43 1   
    37    13    44 1   
    38    14    15 2   
    39    14    23 1   
    40    14    24 1   
    41    16    17 ar  
    42    16    28 ar  
    43    17    25 ar  
    44    17    54 1   
    45    19    20 1   
    46    19    45 1   
    47    19    46 1   
    48    20    47 1   
    49    20    48 1   
    50    21    22 ar  
    51    21    49 1   
    52    24    50 1   
    53    24    51 1   
    54    25    26 ar  
    55    26    27 ar  
    56    26    52 1   
    57    27    28 ar  
    58    28    53 1   
@<TRIPOS>SUBSTRUCTURE
     1 B7E         1 TEMP              0 ****  ****    0 ROOT
