@<TRIPOS>MOLECULE
B7F
   15    14     1     0     0
SMALL
No Charge or Current Charge


@<TRIPOS>ATOM
      1 F7          20.0570     3.3940    13.6390 f          1 B7F      -0.087333
      2 C4          19.7150     2.1160    13.3520 c3         1 B7F       0.274000
      3 F5          18.4600     1.9170    13.8170 f          1 B7F      -0.087333
      4 F6          20.5370     1.3040    14.0580 f          1 B7F      -0.087333
      5 C3          19.8130     1.8400    11.8160 c3         1 B7F       0.083000
      6 F3          21.0660     2.1530    11.4050 f          1 B7F      -0.070000
      7 F4          18.9910     2.7030    11.1670 f          1 B7F      -0.070000
      8 C2          19.4680     0.3770    11.3590 c3         1 B7F       0.155000
      9 F1          18.2310     0.0480    11.8040 f          1 B7F      -0.087000
     10 F2          20.3130    -0.5020    11.9520 f          1 B7F      -0.087000
     11 C1          19.4930     0.1450     9.8160 c3         1 B7F       0.121600
     12 O1          20.8270     0.1940     9.2720 oh         1 B7F      -0.639000
     13 H1          18.8560     0.8980     9.3310 h1         1 B7F       0.058200
     14 H2          19.0420    -0.8350     9.6070 h1         1 B7F       0.058200
     15 H3          20.7580     0.0170     8.3060 ho         1 B7F       0.465000
@<TRIPOS>BOND
     1     1     2 1   
     2     2     3 1   
     3     2     4 1   
     4     2     5 1   
     5     5     6 1   
     6     5     7 1   
     7     5     8 1   
     8     8     9 1   
     9     8    10 1   
    10     8    11 1   
    11    11    12 1   
    12    11    13 1   
    13    11    14 1   
    14    12    15 1   
@<TRIPOS>SUBSTRUCTURE
     1 B7F         1 TEMP              0 ****  ****    0 ROOT
