@<TRIPOS>MOLECULE
B7F
   15    14     1     0     0
SMALL
abcg2


@<TRIPOS>ATOM
      1 F7          20.1890     3.2990    13.5550 f          1 B7F      -0.087333
      2 C4          19.6360     2.1230    13.2710 c3         1 B7F       0.274000
      3 F5          18.3310     2.2200    13.4880 f          1 B7F      -0.087333
      4 F6          20.1420     1.2150    14.0970 f          1 B7F      -0.087333
      5 C3          19.9330     1.7640    11.7930 c3         1 B7F       0.083000
      6 F3          21.2450     1.9680    11.5920 f          1 B7F      -0.070000
      7 F4          19.2440     2.6370    11.0330 f          1 B7F      -0.070000
      8 C2          19.5700     0.3200    11.3640 c3         1 B7F       0.155000
      9 F1          18.3890    -0.0070    11.9420 f          1 B7F      -0.087000
     10 F2          20.5120    -0.4980    11.8890 f          1 B7F      -0.087000
     11 C1          19.4480     0.1010     9.8680 c3         1 B7F       0.121600
     12 O1          20.6510     0.4780     9.2670 oh         1 B7F      -0.639000
     13 H1          18.5880     0.6700     9.5020 h1         1 B7F       0.058200
     14 H2          19.2150    -0.9630     9.7260 h1         1 B7F       0.058200
     15 H3          20.5340     0.4430     8.3130 ho         1 B7F       0.465000
@<TRIPOS>BOND
     1     1     2 1   
     2     2     3 1   
     3     2     4 1   
     4     2     5 1   
     5     5     6 1   
     6     5     7 1   
     7     5     8 1   
     8     8     9 1   
     9     8    10 1   
    10     8    11 1   
    11    11    12 1   
    12    11    13 1   
    13    11    14 1   
    14    12    15 1   
@<TRIPOS>SUBSTRUCTURE
     1 B7F         1 TEMP              0 ****  ****    0 ROOT
