@<TRIPOS>MOLECULE
B7G
   45    45     1     0     0
SMALL
abcg2


@<TRIPOS>ATOM
      1 C5          -1.3730     0.1210    -2.8930 c6         1 B7G       0.182300
      2 O5          -0.8970    -0.4140    -1.6770 os         1 B7G      -0.467000
      3 C1           0.3130     0.1570    -1.2500 c6         1 B7G       0.366300
      4 C2           1.4180    -0.1680    -2.2510 c6         1 B7G       0.114300
      5 C3           1.0070     0.3570    -3.6190 c6         1 B7G       0.139300
      6 C4          -0.3690    -0.1700    -4.0100 c6         1 B7G       0.142300
      7 C6          -2.7250    -0.4990    -3.1760 c3         1 B7G       0.171600
      8 O1           0.6500    -0.3840    -0.0300 os         1 B7G      -0.456000
      9 C7          -0.0210     0.1810     1.0870 c3         1 B7G       0.165600
     10 C8           0.5690    -0.3880     2.3590 c3         1 B7G      -0.081400
     11 C9          -0.0740     0.2220     3.5990 c3         1 B7G      -0.074400
     12 C10          0.4970    -0.3320     4.8980 c3         1 B7G      -0.074400
     13 C11         -0.1270     0.2930     6.1390 c3         1 B7G      -0.076400
     14 C12          0.4420    -0.2560     7.4410 c3         1 B7G      -0.074400
     15 O2           2.6320     0.4500    -1.9030 oh         1 B7G      -0.725000
     16 O3           1.9090    -0.0280    -4.6290 oh         1 B7G      -0.666000
     17 O4          -0.8340     0.4450    -5.1860 oh         1 B7G      -0.719000
     18 O6          -3.6260    -0.1090    -2.1670 oh         1 B7G      -0.712000
     19 C13         -0.1830     0.3780     8.6760 c3         1 B7G      -0.088100
     20 H51         -1.4910     1.2140    -2.8060 h1         1 B7G       0.058700
     21 H11          0.2000     1.2560    -1.1750 h2         1 B7G       0.033700
     22 H21          1.5250    -1.2620    -2.3020 h1         1 B7G       0.067700
     23 H31          0.9380     1.4550    -3.5560 h1         1 B7G       0.052700
     24 H41         -0.3010    -1.2620    -4.1360 h1         1 B7G       0.055700
     25 H61         -3.0590    -0.1690    -4.1650 h1         1 B7G       0.037200
     26 H62         -2.6100    -1.5910    -3.2220 h1         1 B7G       0.037200
     27 H71         -1.0950    -0.0310     1.0410 h1         1 B7G       0.035200
     28 H72          0.0930     1.2730     1.0730 h1         1 B7G       0.035200
     29 H81          1.6470    -0.1990     2.3760 hc         1 B7G       0.050700
     30 H82          0.4370    -1.4740     2.3720 hc         1 B7G       0.050700
     31 H91         -1.1550     0.0490     3.5740 hc         1 B7G       0.039700
     32 H92          0.0590     1.3090     3.5800 hc         1 B7G       0.039700
     33 H101         1.5800    -0.1700     4.9160 hc         1 B7G       0.038700
     34 H102         0.3530    -1.4170     4.9250 hc         1 B7G       0.038700
     35 H111        -1.2110     0.1330     6.1200 hc         1 B7G       0.037200
     36 H112         0.0160     1.3790     6.1100 hc         1 B7G       0.037200
     37 H121         1.5250    -0.0970     7.4560 hc         1 B7G       0.036700
     38 H122         0.2960    -1.3400     7.4710 hc         1 B7G       0.036700
     39 HO2          2.9830     0.0120    -1.1210 ho         1 B7G       0.524000
     40 HO3          2.7420     0.4320    -4.4890 ho         1 B7G       0.466000
     41 HO4         -0.2020     0.2650    -5.8900 ho         1 B7G       0.525000
     42 HO6         -4.4950    -0.4470    -2.4010 ho         1 B7G       0.504000
     43 H131         0.2410    -0.0300     9.5940 hc         1 B7G       0.031367
     44 H132        -0.0230     1.4570     8.6900 hc         1 B7G       0.031367
     45 H133        -1.2610     0.2060     8.7050 hc         1 B7G       0.031367
@<TRIPOS>BOND
     1     1     2 1   
     2     1     6 1   
     3     1     7 1   
     4     1    20 1   
     5     2     3 1   
     6     3     4 1   
     7     3     8 1   
     8     3    21 1   
     9     4     5 1   
    10     4    15 1   
    11     4    22 1   
    12     5     6 1   
    13     5    16 1   
    14     5    23 1   
    15     6    17 1   
    16     6    24 1   
    17     7    18 1   
    18     7    25 1   
    19     7    26 1   
    20     8     9 1   
    21     9    10 1   
    22     9    27 1   
    23     9    28 1   
    24    10    11 1   
    25    10    29 1   
    26    10    30 1   
    27    11    12 1   
    28    11    31 1   
    29    11    32 1   
    30    12    13 1   
    31    12    33 1   
    32    12    34 1   
    33    13    14 1   
    34    13    35 1   
    35    13    36 1   
    36    14    19 1   
    37    14    37 1   
    38    14    38 1   
    39    15    39 1   
    40    16    40 1   
    41    17    41 1   
    42    18    42 1   
    43    19    43 1   
    44    19    44 1   
    45    19    45 1   
@<TRIPOS>SUBSTRUCTURE
     1 B7G         1 TEMP              0 ****  ****    0 ROOT
