@<TRIPOS>MOLECULE
B7G
   45    45     1     0     0
SMALL
No Charge or Current Charge


@<TRIPOS>ATOM
      1 C5          -1.3870     0.1850    -2.9150 c6         1 B7G       0.182300
      2 O5          -0.8440    -0.2530    -1.6390 os         1 B7G      -0.467000
      3 C1           0.4540     0.2960    -1.3430 c6         1 B7G       0.366300
      4 C2           1.4840    -0.2040    -2.4090 c6         1 B7G       0.114300
      5 C3           0.9990     0.2500    -3.8140 c6         1 B7G       0.139300
      6 C4          -0.4450    -0.2720    -4.0780 c6         1 B7G       0.142300
      7 C6          -2.8370    -0.3880    -3.0610 c3         1 B7G       0.171600
      8 O1           0.8610    -0.1220    -0.0290 os         1 B7G      -0.456000
      9 C7           0.0710     0.3740     1.0630 c3         1 B7G       0.165600
     10 C8           0.6930    -0.1600     2.3680 c3         1 B7G      -0.081400
     11 C9          -0.0670     0.3030     3.6300 c3         1 B7G      -0.074400
     12 C10          0.5540    -0.2310     4.9400 c3         1 B7G      -0.074400
     13 C11         -0.2050     0.2320     6.2020 c3         1 B7G      -0.076400
     14 C12          0.4150    -0.3020     7.5110 c3         1 B7G      -0.074400
     15 O2           2.8280     0.2710    -2.1500 oh         1 B7G      -0.725000
     16 O3           1.9050    -0.2160    -4.8290 oh         1 B7G      -0.666000
     17 O4          -0.9000     0.1900    -5.3650 oh         1 B7G      -0.719000
     18 O6          -3.7140    -0.0160    -1.9760 oh         1 B7G      -0.712000
     19 C13         -0.3430     0.1610     8.7710 c3         1 B7G      -0.088100
     20 H51         -1.4540     1.2830    -2.9120 h1         1 B7G       0.058700
     21 H11          0.4040     1.3950    -1.3720 h2         1 B7G       0.033700
     22 H21          1.4700    -1.3050    -2.3820 h1         1 B7G       0.067700
     23 H31          0.9740     1.3510    -3.8210 h1         1 B7G       0.052700
     24 H41         -0.4150    -1.3720    -4.0730 h1         1 B7G       0.055700
     25 H61         -3.2520    -0.0310    -4.0130 h1         1 B7G       0.037200
     26 H62         -2.7640    -1.4820    -3.1290 h1         1 B7G       0.037200
     27 H71         -0.9680     0.0270     0.9850 h1         1 B7G       0.035200
     28 H72          0.0730     1.4720     1.0770 h1         1 B7G       0.035200
     29 H81          1.7360     0.1740     2.4300 hc         1 B7G       0.050700
     30 H82          0.7050    -1.2570     2.3340 hc         1 B7G       0.050700
     31 H91         -1.1100    -0.0290     3.5640 hc         1 B7G       0.039700
     32 H92         -0.0810     1.4000     3.6590 hc         1 B7G       0.039700
     33 H101         1.5980     0.1010     5.0050 hc         1 B7G       0.038700
     34 H102         0.5680    -1.3280     4.9110 hc         1 B7G       0.038700
     35 H111        -1.2490    -0.1000     6.1360 hc         1 B7G       0.037200
     36 H112        -0.2200     1.3290     6.2310 hc         1 B7G       0.037200
     37 H121         1.4580     0.0300     7.5820 hc         1 B7G       0.036700
     38 H122         0.4290    -1.3990     7.4870 hc         1 B7G       0.036700
     39 HO2          2.9890     0.1200    -1.1860 ho         1 B7G       0.524000
     40 HO3          2.8000    -0.1300    -4.4220 ho         1 B7G       0.466000
     41 HO4         -0.1100     0.1110    -5.9550 ho         1 B7G       0.525000
     42 HO6         -4.5710    -0.4780    -2.1280 ho         1 B7G       0.504000
     43 H131         0.1330    -0.2420     9.6730 hc         1 B7G       0.031367
     44 H132        -0.3440     1.2550     8.8430 hc         1 B7G       0.031367
     45 H133        -1.3830    -0.1860     8.7470 hc         1 B7G       0.031367
@<TRIPOS>BOND
     1     1     2 1   
     2     1     6 1   
     3     1     7 1   
     4     1    20 1   
     5     2     3 1   
     6     3     4 1   
     7     3     8 1   
     8     3    21 1   
     9     4     5 1   
    10     4    15 1   
    11     4    22 1   
    12     5     6 1   
    13     5    16 1   
    14     5    23 1   
    15     6    17 1   
    16     6    24 1   
    17     7    18 1   
    18     7    25 1   
    19     7    26 1   
    20     8     9 1   
    21     9    10 1   
    22     9    27 1   
    23     9    28 1   
    24    10    11 1   
    25    10    29 1   
    26    10    30 1   
    27    11    12 1   
    28    11    31 1   
    29    11    32 1   
    30    12    13 1   
    31    12    33 1   
    32    12    34 1   
    33    13    14 1   
    34    13    35 1   
    35    13    36 1   
    36    14    19 1   
    37    14    37 1   
    38    14    38 1   
    39    15    39 1   
    40    16    40 1   
    41    17    41 1   
    42    18    42 1   
    43    19    43 1   
    44    19    44 1   
    45    19    45 1   
@<TRIPOS>SUBSTRUCTURE
     1 B7G         1 TEMP              0 ****  ****    0 ROOT
