@<TRIPOS>MOLECULE
B7H
   34    36     1     0     0
SMALL
No Charge or Current Charge


@<TRIPOS>ATOM
      1 C20         -5.5430    -0.3700     0.1720 cg         1 B7H       0.248000
      2 C8           0.5250    -0.8420     0.0630 ca         1 B7H      -0.065000
      3 C12         -0.1770     1.5000     0.0670 ca         1 B7H      -0.090000
      4 C3          -4.1400    -0.6520     0.0890 cc         1 B7H       0.320000
      5 C7          -0.5240     0.1180     0.0750 ca         1 B7H      -0.035000
      6 C9           1.8620    -0.4140     0.0570 ca         1 B7H      -0.116300
      7 C2          -3.1250     0.3290     0.2310 cc         1 B7H      -0.128300
      8 C10          2.1610     0.9270     0.0570 ca         1 B7H      -0.054000
      9 C11          1.1700     1.9090     0.0600 ca         1 B7H       0.136000
     10 C6          -1.9350    -0.3540     0.0820 cd         1 B7H      -0.103000
     11 C15          4.2670    -0.1260     0.0440 c          1 B7H       0.568000
     12 C17          3.1490    -1.2440     0.0500 c5         1 B7H      -0.084700
     13 C18          3.2570    -2.1280    -1.2190 c3         1 B7H      -0.072100
     14 C19          3.2700    -2.1280     1.3170 c3         1 B7H      -0.072100
     15 N21         -6.6830    -0.1150     0.2390 n1         1 B7H      -0.443000
     16 N5          -2.3220    -1.6900    -0.1350 na         1 B7H       0.019800
     17 N4          -3.6980    -1.8730    -0.1320 nd         1 B7H      -0.467800
     18 N14          3.5450     1.0480     0.0490 ns         1 B7H      -0.137000
     19 O16          5.4880    -0.2260     0.0360 o          1 B7H      -0.508000
     20 F13          1.4940     3.2210     0.0480 f          1 B7H      -0.170000
     21 H8           0.3180    -1.9080     0.0710 ha         1 B7H       0.122000
     22 H12         -0.9290     2.2740     0.0420 ha         1 B7H       0.144000
     23 H11C        -4.4310     1.9800     0.8220 hc         1 B7H       0.049367
     24 H12C        -2.7640     2.1500     1.3420 hc         1 B7H       0.049367
     25 H13C        -3.1990     2.4080    -0.3670 hc         1 B7H       0.049367
     26 H14          3.9990     1.9520     0.0460 hn         1 B7H       0.186000
     27 H5          -1.6950    -2.4760    -0.2980 hn         1 B7H       0.380000
     28 H181         3.1780    -1.5210    -2.1300 hc         1 B7H       0.048867
     29 H182         4.2160    -2.6590    -1.2560 hc         1 B7H       0.048867
     30 H183         2.4580    -2.8780    -1.2510 hc         1 B7H       0.048867
     31 H191         2.4720    -2.8780     1.3580 hc         1 B7H       0.048867
     32 H192         4.2300    -2.6590     1.3430 hc         1 B7H       0.048867
     33 H193         3.2010    -1.5220     2.2290 hc         1 B7H       0.048867
     34 C1          -3.3950     1.7920     0.5190 c3         1 B7H      -0.018800
@<TRIPOS>BOND
     1     1     4 1   
     2     1    15 3   
     3     2     5 ar  
     4     2     6 ar  
     5     2    21 1   
     6     3     5 ar  
     7     3     9 ar  
     8     3    22 1   
     9     4     7 1   
    10     4    17 2   
    11     5    10 1   
    12     6     8 ar  
    13     6    12 1   
    14     7    10 2   
    15     7    34 1   
    16     8     9 ar  
    17     8    18 1   
    18     9    20 1   
    19    10    16 1   
    20    11    12 1   
    21    11    18 1   
    22    11    19 2   
    23    12    13 1   
    24    12    14 1   
    25    13    28 1   
    26    13    29 1   
    27    13    30 1   
    28    14    31 1   
    29    14    32 1   
    30    14    33 1   
    31    16    17 1   
    32    16    27 1   
    33    18    26 1   
    34    23    34 1   
    35    24    34 1   
    36    25    34 1   
@<TRIPOS>SUBSTRUCTURE
     1 B7H         1 TEMP              0 ****  ****    0 ROOT
