@<TRIPOS>MOLECULE
B7H
   34    36     1     0     0
SMALL
bcc


@<TRIPOS>ATOM
      1 C20         -5.4710    -0.4410     0.2680 cg         1 B7H       0.158800
      2 C8           0.4830    -0.8400    -0.0020 ca         1 B7H      -0.083000
      3 C12         -0.1860     1.4630    -0.3140 ca         1 B7H      -0.108000
      4 C3          -4.0890    -0.5790    -0.0250 cc         1 B7H       0.385300
      5 C7          -0.5260     0.1170    -0.1680 ca         1 B7H      -0.035000
      6 C9           1.7980    -0.4360     0.0100 ca         1 B7H      -0.116300
      7 C2          -3.0670     0.3350     0.2960 cc         1 B7H      -0.193600
      8 C10          2.1340     0.9060    -0.1300 ca         1 B7H       0.038600
      9 C11          1.1400     1.8480    -0.2890 ca         1 B7H       0.100900
     10 C6          -1.9290    -0.2820    -0.1940 cd         1 B7H      -0.052300
     11 C15          4.1390    -0.1350     0.0920 c          1 B7H       0.710500
     12 C17          3.0670    -1.2280     0.1630 c5         1 B7H      -0.084700
     13 C18          3.2670    -2.2160    -0.9890 c3         1 B7H      -0.072100
     14 C19          3.1480    -1.9430     1.5140 c3         1 B7H      -0.072100
     15 N21         -6.5860    -0.3010     0.5210 n1         1 B7H      -0.353800
     16 N5          -2.3430    -1.4520    -0.7360 na         1 B7H       0.019400
     17 N4          -3.6340    -1.6570    -0.6510 nd         1 B7H      -0.467800
     18 N14          3.5060     1.0620    -0.0790 ns         1 B7H      -0.463100
     19 O16          5.3370    -0.2950     0.1700 o          1 B7H      -0.583500
     20 F13          1.4680     3.1400    -0.4300 f          1 B7H      -0.134900
     21 H8           0.2370    -1.8860     0.1390 ha         1 B7H       0.140000
     22 H12         -0.9460     2.2170    -0.4700 ha         1 B7H       0.162000
     23 H11C        -4.1160     1.6500     1.6110 hc         1 B7H       0.049367
     24 H12C        -2.3650     1.7900     1.7000 hc         1 B7H       0.049367
     25 H13C        -3.2370     2.4770     0.3350 hc         1 B7H       0.049367
     26 H14          3.9910     1.9440    -0.1610 hn         1 B7H       0.352500
     27 H5          -1.7690    -2.1360    -1.2090 hn         1 B7H       0.329700
     28 H181         3.2340    -1.7190    -1.9580 hc         1 B7H       0.048867
     29 H182         4.2290    -2.7200    -0.8950 hc         1 B7H       0.048867
     30 H183         2.4850    -2.9750    -0.9700 hc         1 B7H       0.048867
     31 H191         2.3670    -2.7010     1.5840 hc         1 B7H       0.048867
     32 H192         4.1110    -2.4430     1.6210 hc         1 B7H       0.048867
     33 H193         3.0250    -1.2500     2.3460 hc         1 B7H       0.048867
     34 C1          -3.2010     1.6290     1.0200 c3         1 B7H      -0.018800
@<TRIPOS>BOND
     1     1     4 1   
     2     1    15 3   
     3     2     5 ar  
     4     2     6 ar  
     5     2    21 1   
     6     3     5 ar  
     7     3     9 ar  
     8     3    22 1   
     9     4     7 1   
    10     4    17 2   
    11     5    10 1   
    12     6     8 ar  
    13     6    12 1   
    14     7    10 2   
    15     7    34 1   
    16     8     9 ar  
    17     8    18 1   
    18     9    20 1   
    19    10    16 1   
    20    11    12 1   
    21    11    18 1   
    22    11    19 2   
    23    12    13 1   
    24    12    14 1   
    25    13    28 1   
    26    13    29 1   
    27    13    30 1   
    28    14    31 1   
    29    14    32 1   
    30    14    33 1   
    31    16    17 1   
    32    16    27 1   
    33    18    26 1   
    34    23    34 1   
    35    24    34 1   
    36    25    34 1   
@<TRIPOS>SUBSTRUCTURE
     1 B7H         1 TEMP              0 ****  ****    0 ROOT
