@<TRIPOS>MOLECULE
B7I
   59    62     1     0     0
SMALL
abcg2


@<TRIPOS>ATOM
      1 C01          7.7280     1.0730    -0.0080 ca         1 B7I      -0.051000
      2 C02          8.7960     0.1800    -0.0040 ca         1 B7I      -0.162500
      3 C03          8.5030    -1.1870     0.0010 ca         1 B7I      -0.051000
      4 C04          7.1980    -1.6380     0.0020 ca         1 B7I      -0.177000
      5 C05          6.1350    -0.7320    -0.0020 ca         1 B7I       0.157100
      6 C06          6.4130     0.6350    -0.0070 ca         1 B7I      -0.177000
      7 C07         -6.1540    -0.7270    -0.0190 ca         1 B7I       0.157100
      8 C08         -6.4310     0.6400    -0.0050 ca         1 B7I      -0.177000
      9 C09         -7.7450     1.0790     0.0050 ca         1 B7I      -0.051000
     10 C10         -8.8140     0.1870     0.0030 ca         1 B7I      -0.162500
     11 C11         -8.5220    -1.1800    -0.0110 ca         1 B7I      -0.051000
     12 C12         -7.2180    -1.6320    -0.0220 ca         1 B7I      -0.177000
     13 O13          4.9000    -1.2600    -0.0010 os         1 B7I      -0.348600
     14 C14          3.7740    -0.3940    -0.0080 c3         1 B7I       0.166100
     15 C15          2.5240    -1.2480    -0.0110 c3         1 B7I      -0.082400
     16 C16          1.2610    -0.3940    -0.0150 c3         1 B7I      -0.074400
     17 C17         -0.0100    -1.2340    -0.0210 c3         1 B7I      -0.073400
     18 C18         -1.2800    -0.3930    -0.0220 c3         1 B7I      -0.074400
     19 C19         -2.5430    -1.2450    -0.0300 c3         1 B7I      -0.082400
     20 C20         -3.7920    -0.3910    -0.0220 c3         1 B7I       0.166100
     21 O21         -4.9200    -1.2550    -0.0300 os         1 B7I      -0.348600
     22 C22         10.1640     0.6890    -0.0060 cc         1 B7I       0.466500
     23 C23        -10.1810     0.6980     0.0150 cc         1 B7I       0.466500
     24 N24         11.2700    -0.0910     0.0070 na         1 B7I      -0.294000
     25 C25         12.3640     0.7240    -0.0000 cc         1 B7I      -0.233500
     26 C26         11.8610     1.9940    -0.0180 cd         1 B7I       0.236900
     27 N27         10.4980     1.9610    -0.0220 nd         1 B7I      -0.678000
     28 N28        -11.2880    -0.0820     0.0010 na         1 B7I      -0.294000
     29 C29        -12.3810     0.7340     0.0190 cc         1 B7I      -0.233500
     30 C30        -11.8780     2.0030     0.0450 cd         1 B7I       0.236900
     31 N31        -10.5150     1.9690     0.0420 nd         1 B7I      -0.678000
     32 H1           7.9240     2.1370    -0.0130 ha         1 B7I       0.120250
     33 H2           9.2920    -1.9280     0.0030 ha         1 B7I       0.120250
     34 H3           6.9940    -2.7010     0.0060 ha         1 B7I       0.123500
     35 H4           5.6230     1.3720    -0.0100 ha         1 B7I       0.123500
     36 H5          -5.6400     1.3770    -0.0020 ha         1 B7I       0.123500
     37 H6          -7.9400     2.1440     0.0150 ha         1 B7I       0.120250
     38 H7          -9.3120    -1.9200    -0.0130 ha         1 B7I       0.120250
     39 H8          -7.0140    -2.6950    -0.0320 ha         1 B7I       0.123500
     40 H9           3.7870     0.2550     0.8750 h1         1 B7I       0.035950
     41 H10          3.7940     0.2510    -0.8940 h1         1 B7I       0.035950
     42 H11          2.5290    -1.8990    -0.8910 hc         1 B7I       0.055700
     43 H12          2.5240    -1.8980     0.8690 hc         1 B7I       0.055700
     44 H13          1.2580     0.2620     0.8620 hc         1 B7I       0.040700
     45 H14          1.2650     0.2640    -0.8900 hc         1 B7I       0.040700
     46 H15         -0.0080    -1.8900    -0.8990 hc         1 B7I       0.042700
     47 H16         -0.0130    -1.8950     0.8520 hc         1 B7I       0.042700
     48 H17         -1.2820     0.2610     0.8570 hc         1 B7I       0.040700
     49 H18         -1.2770     0.2680    -0.8960 hc         1 B7I       0.040700
     50 H19         -2.5460    -1.8880    -0.9150 hc         1 B7I       0.055700
     51 H20         -2.5460    -1.9040     0.8440 hc         1 B7I       0.055700
     52 H21         -3.8090     0.2480     0.8690 h1         1 B7I       0.035950
     53 H22         -3.8090     0.2650    -0.9000 h1         1 B7I       0.035950
     54 H23         11.3030    -1.0970     0.0190 hn         1 B7I       0.350000
     55 H24         13.3690     0.3400     0.0070 h4         1 B7I       0.157000
     56 H25         12.4080     2.9240    -0.0280 h4         1 B7I       0.037100
     57 H27        -11.3220    -1.0880    -0.0200 hn         1 B7I       0.350000
     58 H28        -13.3870     0.3500     0.0150 h4         1 B7I       0.157000
     59 H29        -12.4240     2.9330     0.0640 h4         1 B7I       0.037100
@<TRIPOS>BOND
     1     1     2 ar  
     2     1     6 ar  
     3     1    32 1   
     4     2     3 ar  
     5     2    22 1   
     6     3     4 ar  
     7     3    33 1   
     8     4     5 ar  
     9     4    34 1   
    10     5     6 ar  
    11     5    13 1   
    12     6    35 1   
    13     7     8 ar  
    14     7    12 ar  
    15     7    21 1   
    16     8     9 ar  
    17     8    36 1   
    18     9    10 ar  
    19     9    37 1   
    20    10    11 ar  
    21    10    23 1   
    22    11    12 ar  
    23    11    38 1   
    24    12    39 1   
    25    13    14 1   
    26    14    15 1   
    27    14    40 1   
    28    14    41 1   
    29    15    16 1   
    30    15    42 1   
    31    15    43 1   
    32    16    17 1   
    33    16    44 1   
    34    16    45 1   
    35    17    18 1   
    36    17    46 1   
    37    17    47 1   
    38    18    19 1   
    39    18    48 1   
    40    18    49 1   
    41    19    20 1   
    42    19    50 1   
    43    19    51 1   
    44    20    21 1   
    45    20    52 1   
    46    20    53 1   
    47    22    24 1   
    48    22    27 2   
    49    23    28 1   
    50    23    31 2   
    51    24    25 1   
    52    24    54 1   
    53    25    26 2   
    54    25    55 1   
    55    26    27 1   
    56    26    56 1   
    57    28    29 1   
    58    28    57 1   
    59    29    30 2   
    60    29    58 1   
    61    30    31 1   
    62    30    59 1   
@<TRIPOS>SUBSTRUCTURE
     1 B7I         1 TEMP              0 ****  ****    0 ROOT
