@<TRIPOS>MOLECULE
B7I
   59    62     1     0     0
SMALL
No Charge or Current Charge


@<TRIPOS>ATOM
      1 C01          7.9580     1.0830    -0.0050 ca         1 B7I      -0.051000
      2 C02          8.9960     0.1250    -0.0090 ca         1 B7I      -0.162500
      3 C03          8.6490    -1.2460    -0.0150 ca         1 B7I      -0.051000
      4 C04          7.3000    -1.6410    -0.0170 ca         1 B7I      -0.177000
      5 C05          6.2760    -0.6840    -0.0130 ca         1 B7I       0.157100
      6 C06          6.6090     0.6860    -0.0070 ca         1 B7I      -0.177000
      7 C07         -6.2940    -0.6790    -0.0060 ca         1 B7I       0.157100
      8 C08         -6.6270     0.6910     0.0000 ca         1 B7I      -0.177000
      9 C09         -7.9750     1.0900     0.0030 ca         1 B7I      -0.051000
     10 C10         -9.0140     0.1320     0.0000 ca         1 B7I      -0.162500
     11 C11         -8.6690    -1.2390    -0.0060 ca         1 B7I      -0.051000
     12 C12         -7.3200    -1.6350    -0.0090 ca         1 B7I      -0.177000
     13 O13          4.9720    -1.1340    -0.0150 os         1 B7I      -0.348600
     14 C14          3.8510    -0.2340    -0.0110 c3         1 B7I       0.166100
     15 C15          2.5670    -1.0860    -0.0140 c3         1 B7I      -0.082400
     16 C16          1.2790    -0.2330    -0.0100 c3         1 B7I      -0.074400
     17 C17         -0.0100    -1.0850    -0.0130 c3         1 B7I      -0.073400
     18 C18         -1.2970    -0.2320    -0.0090 c3         1 B7I      -0.074400
     19 C19         -2.5860    -1.0840    -0.0110 c3         1 B7I      -0.082400
     20 C20         -3.8700    -0.2310    -0.0070 c3         1 B7I       0.166100
     21 O21         -4.9910    -1.1310    -0.0090 os         1 B7I      -0.348600
     22 C22         10.4040     0.5530    -0.0070 cc         1 B7I       0.466500
     23 C23        -10.4220     0.5620     0.0040 cc         1 B7I       0.466500
     24 N24         11.4800    -0.3020    -0.0110 na         1 B7I      -0.294000
     25 C25         12.6320     0.4590    -0.0070 cc         1 B7I      -0.233500
     26 C26         12.2020     1.7590    -0.0020 cd         1 B7I       0.236900
     27 N27         10.8220     1.8110    -0.0020 nd         1 B7I      -0.678000
     28 N28        -11.4980    -0.2930     0.0010 na         1 B7I      -0.294000
     29 C29        -12.6500     0.4690     0.0050 cc         1 B7I      -0.233500
     30 C30        -12.2180     1.7690     0.0110 cd         1 B7I       0.236900
     31 N31        -10.8390     1.8190     0.0090 nd         1 B7I      -0.678000
     32 H1           8.1920     2.1460    -0.0010 ha         1 B7I       0.120250
     33 H2           9.4160    -2.0170    -0.0180 ha         1 B7I       0.120250
     34 H3           7.0470    -2.6980    -0.0210 ha         1 B7I       0.123500
     35 H4           5.8410     1.4540    -0.0040 ha         1 B7I       0.123500
     36 H5          -5.8580     1.4580     0.0020 ha         1 B7I       0.123500
     37 H6          -8.2080     2.1530     0.0080 ha         1 B7I       0.120250
     38 H7          -9.4360    -2.0090    -0.0080 ha         1 B7I       0.120250
     39 H8          -7.0670    -2.6920    -0.0140 ha         1 B7I       0.123500
     40 H9           3.8670     0.4020     0.8840 h1         1 B7I       0.035950
     41 H10          3.8670     0.4090    -0.9010 h1         1 B7I       0.035950
     42 H11          2.5700    -1.7330    -0.9000 hc         1 B7I       0.055700
     43 H12          2.5710    -1.7400     0.8660 hc         1 B7I       0.055700
     44 H13          1.2800     0.4160     0.8740 hc         1 B7I       0.040700
     45 H14          1.2790     0.4230    -0.8900 hc         1 B7I       0.040700
     46 H15         -0.0100    -1.7340    -0.8980 hc         1 B7I       0.042700
     47 H16         -0.0090    -1.7420     0.8660 hc         1 B7I       0.042700
     48 H17         -1.2970     0.4170     0.8760 hc         1 B7I       0.040700
     49 H18         -1.2980     0.4240    -0.8880 hc         1 B7I       0.040700
     50 H19         -2.5910    -1.7310    -0.8970 hc         1 B7I       0.055700
     51 H20         -2.5900    -1.7380     0.8690 hc         1 B7I       0.055700
     52 H21         -3.8840     0.4050     0.8890 h1         1 B7I       0.035950
     53 H22         -3.8860     0.4120    -0.8960 h1         1 B7I       0.035950
     54 H23         11.4190    -1.3120    -0.0150 hn         1 B7I       0.350000
     55 H24         13.6320     0.0410    -0.0090 h4         1 B7I       0.157000
     56 H25         12.8060     2.6590     0.0020 h4         1 B7I       0.037100
     57 H27        -11.4380    -1.3030    -0.0040 hn         1 B7I       0.350000
     58 H28        -13.6510     0.0520     0.0050 h4         1 B7I       0.157000
     59 H29        -12.8220     2.6700     0.0150 h4         1 B7I       0.037100
@<TRIPOS>BOND
     1     1     2 ar  
     2     1     6 ar  
     3     1    32 1   
     4     2     3 ar  
     5     2    22 1   
     6     3     4 ar  
     7     3    33 1   
     8     4     5 ar  
     9     4    34 1   
    10     5     6 ar  
    11     5    13 1   
    12     6    35 1   
    13     7     8 ar  
    14     7    12 ar  
    15     7    21 1   
    16     8     9 ar  
    17     8    36 1   
    18     9    10 ar  
    19     9    37 1   
    20    10    11 ar  
    21    10    23 1   
    22    11    12 ar  
    23    11    38 1   
    24    12    39 1   
    25    13    14 1   
    26    14    15 1   
    27    14    40 1   
    28    14    41 1   
    29    15    16 1   
    30    15    42 1   
    31    15    43 1   
    32    16    17 1   
    33    16    44 1   
    34    16    45 1   
    35    17    18 1   
    36    17    46 1   
    37    17    47 1   
    38    18    19 1   
    39    18    48 1   
    40    18    49 1   
    41    19    20 1   
    42    19    50 1   
    43    19    51 1   
    44    20    21 1   
    45    20    52 1   
    46    20    53 1   
    47    22    24 1   
    48    22    27 2   
    49    23    28 1   
    50    23    31 2   
    51    24    25 1   
    52    24    54 1   
    53    25    26 2   
    54    25    55 1   
    55    26    27 1   
    56    26    56 1   
    57    28    29 1   
    58    28    57 1   
    59    29    30 2   
    60    29    58 1   
    61    30    31 1   
    62    30    59 1   
@<TRIPOS>SUBSTRUCTURE
     1 B7I         1 TEMP              0 ****  ****    0 ROOT
