@<TRIPOS>MOLECULE
B7K
   53    56     1     0     0
SMALL
No Charge or Current Charge


@<TRIPOS>ATOM
      1 N            4.1670     0.9330    -0.1250 n          1 B7K       0.094000
      2 C            4.3090    -0.3520    -0.6800 c          1 B7K       0.555800
      3 O            5.2350    -0.6480    -1.4270 o          1 B7K      -0.437000
      4 C1           2.9540     1.3420     0.3750 cc         1 B7K       0.146400
      5 C10          0.6850    -1.3370    -0.3380 cc         1 B7K      -0.310900
      6 C11         -0.5520    -0.7510    -0.2660 cd         1 B7K      -0.079000
      7 C12         -2.9210    -1.6190    -0.6930 c6         1 B7K       0.092300
      8 C13         -3.3370    -0.5730    -1.7650 c6         1 B7K      -0.115900
      9 C14         -4.8730    -0.3860    -1.7880 c6         1 B7K       0.101000
     10 C16         -6.2590     1.6050     1.2630 ce         1 B7K      -0.301200
     11 C17         -7.2860     2.4100     1.6330 c2         1 B7K      -0.227000
     12 C18         -5.0520    -1.0700     0.5830 c6         1 B7K       0.101000
     13 C19         -3.5220    -1.2590     0.6950 c6         1 B7K      -0.115900
     14 C2           3.0430     2.6430     0.7970 cd         1 B7K      -0.115000
     15 C20          0.4510    -2.6650    -0.7320 cc         1 B7K       0.276900
     16 C3           2.0270     3.4460     1.3690 ch         1 B7K       0.370000
     17 C4           4.3830     3.0170     0.4940 cd         1 B7K       0.291900
     18 C5           3.1870    -1.3650    -0.3520 c6         1 B7K      -0.247000
     19 C6           3.5900    -2.2820     0.8640 c3         1 B7K      -0.040700
     20 C7           4.7510    -3.2470     0.5250 c3         1 B7K      -0.098600
     21 C8           3.8940    -1.5180     2.1770 c3         1 B7K      -0.098600
     22 C9           1.8400    -0.6600    -0.0560 cf         1 B7K       0.578900
     23 N1           1.8090     0.5740     0.3800 ne         1 B7K      -0.572100
     24 N2           1.2090     4.1310     1.8450 n1         1 B7K      -0.459000
     25 N3           5.0310     2.0100    -0.0690 nc         1 B7K      -0.456800
     26 N4          -1.4480    -1.7650    -0.6220 na         1 B7K       0.138800
     27 N5          -5.3650    -0.0290    -0.4320 n          1 B7K      -0.415800
     28 N6          -0.8180    -2.9650    -0.9140 nd         1 B7K      -0.521800
     29 O1          -6.3140     1.9600    -1.0700 o          1 B7K      -0.603100
     30 H1          -0.8630     0.2560    -0.0040 h4         1 B7K       0.181000
     31 H2          -3.3340    -2.5930    -0.9950 h1         1 B7K       0.087700
     32 H3          -2.8620     0.3950    -1.5550 hc         1 B7K       0.065700
     33 H4          -2.9860    -0.8890    -2.7560 hc         1 B7K       0.065700
     34 H5          -5.1350     0.3870    -2.5240 h1         1 B7K       0.062450
     35 H6          -5.3560    -1.3190    -2.1130 h1         1 B7K       0.062450
     36 H7          -5.6390     1.1500     2.0300 ha         1 B7K       0.177000
     37 H8          -7.9580     2.8640     0.9020 ha         1 B7K       0.178000
     38 H9          -7.4860     2.6400     2.6810 ha         1 B7K       0.178000
     39 H10         -5.5070    -2.0190     0.2620 h1         1 B7K       0.062450
     40 H11         -5.4830    -0.8460     1.5660 h1         1 B7K       0.062450
     41 H12         -3.2970    -2.0520     1.4200 hc         1 B7K       0.065700
     42 H13         -3.0700    -0.3350     1.0820 hc         1 B7K       0.065700
     43 H14          1.1880    -3.4420    -0.8920 h4         1 B7K       0.043100
     44 H15          4.8770     3.9680     0.6480 h4         1 B7K       0.053100
     45 H16          3.0900    -2.0230    -1.2230 hc         1 B7K       0.105700
     46 H17          2.7300    -2.9290     1.0860 hc         1 B7K       0.060700
     47 H18          4.5280    -3.8240    -0.3810 hc         1 B7K       0.046033
     48 H19          5.6890    -2.7010     0.3640 hc         1 B7K       0.046033
     49 H20          4.9130    -3.9590     1.3430 hc         1 B7K       0.046033
     50 H21          3.0430    -0.9010     2.4850 hc         1 B7K       0.046033
     51 H22          4.1000    -2.2220     2.9920 hc         1 B7K       0.046033
     52 H23          4.7720    -0.8690     2.0680 hc         1 B7K       0.046033
     53 C15         -5.9680     1.2230    -0.1570 c          1 B7K       0.612300
@<TRIPOS>BOND
     1     1     2 1   
     2     1     4 1   
     3     1    25 1   
     4     2     3 2   
     5     2    18 1   
     6     4    14 2   
     7     4    23 1   
     8     5     6 2   
     9     5    15 1   
    10     5    22 1   
    11     6    26 1   
    12     6    30 1   
    13     7     8 1   
    14     7    13 1   
    15     7    26 1   
    16     7    31 1   
    17     8     9 1   
    18     8    32 1   
    19     8    33 1   
    20     9    27 1   
    21     9    34 1   
    22     9    35 1   
    23    10    11 2   
    24    10    36 1   
    25    10    53 1   
    26    11    37 1   
    27    11    38 1   
    28    12    13 1   
    29    12    27 1   
    30    12    39 1   
    31    12    40 1   
    32    13    41 1   
    33    13    42 1   
    34    14    16 1   
    35    14    17 1   
    36    15    28 2   
    37    15    43 1   
    38    16    24 3   
    39    17    25 2   
    40    17    44 1   
    41    18    19 1   
    42    18    22 1   
    43    18    45 1   
    44    19    20 1   
    45    19    21 1   
    46    19    46 1   
    47    20    47 1   
    48    20    48 1   
    49    20    49 1   
    50    21    50 1   
    51    21    51 1   
    52    21    52 1   
    53    22    23 2   
    54    26    28 1   
    55    27    53 1   
    56    29    53 2   
@<TRIPOS>SUBSTRUCTURE
     1 B7K         1 TEMP              0 ****  ****    0 ROOT
