@<TRIPOS>MOLECULE
B7K
   53    56     1     0     0
SMALL
bcc


@<TRIPOS>ATOM
      1 N            4.4430     0.7310    -0.2150 n          1 B7K       0.043300
      2 C            4.5420    -0.6470    -0.3810 c          1 B7K       0.631300
      3 O            5.5970    -1.1860    -0.5690 o          1 B7K      -0.512500
      4 C1           3.2520     1.3980    -0.1970 cc         1 B7K       0.197100
      5 C10          0.7490    -1.1180    -0.6640 cc         1 B7K      -0.376200
      6 C11         -0.4940    -0.4990    -0.6950 cd         1 B7K      -0.046300
      7 C12         -2.8390    -1.3330    -1.0110 c6         1 B7K       0.063000
      8 C13         -3.2920     0.0020    -1.5870 c6         1 B7K      -0.115900
      9 C14         -4.8160     0.0590    -1.5950 c6         1 B7K       0.101000
     10 C16         -6.4650     0.6370     1.7710 ce         1 B7K      -0.251200
     11 C17         -7.2860     1.5010     2.3590 c2         1 B7K      -0.127000
     12 C18         -4.9650    -1.4280     0.2990 c6         1 B7K       0.101000
     13 C19         -3.4490    -1.5640     0.3680 c6         1 B7K      -0.115900
     14 C2           3.5850     2.7290    -0.0560 cd         1 B7K      -0.180300
     15 C20          0.4580    -2.4760    -0.9290 cc         1 B7K       0.342200
     16 C3           2.6900     3.8120     0.0010 ch         1 B7K       0.280800
     17 C4           5.0070     2.7470    -0.0070 cd         1 B7K       0.357200
     18 C5           3.2210    -1.3570    -0.2350 c6         1 B7K      -0.247000
     19 C6           3.1380    -2.0420     1.1770 c3         1 B7K      -0.040700
     20 C7           4.1170    -3.2020     1.3040 c3         1 B7K      -0.098600
     21 C8           3.2890    -1.0500     2.3240 c3         1 B7K      -0.098600
     22 C9           2.0140    -0.4770    -0.4310 cf         1 B7K       0.578900
     23 N1           2.0460     0.8120    -0.3580 ne         1 B7K      -0.572100
     24 N2           1.9600     4.7040     0.0480 n1         1 B7K      -0.369800
     25 N3           5.5090     1.5510    -0.1120 nc         1 B7K      -0.456800
     26 N4          -1.3880    -1.4480    -0.9620 na         1 B7K       0.117400
     27 N5          -5.3430    -0.1400    -0.2550 n          1 B7K      -0.482800
     28 N6          -0.8290    -2.6570    -1.1050 nd         1 B7K      -0.521800
     29 O1          -6.2750     1.9110    -0.2030 o          1 B7K      -0.603100
     30 H1          -0.7600     0.5320    -0.5330 h4         1 B7K       0.199000
     31 H2          -3.1670    -2.1300    -1.6830 h1         1 B7K       0.087700
     32 H3          -2.9130     0.8390    -0.9940 hc         1 B7K       0.065700
     33 H4          -2.9220     0.1230    -2.6070 hc         1 B7K       0.065700
     34 H5          -5.1540     1.0130    -1.9850 h1         1 B7K       0.062450
     35 H6          -5.2140    -0.7250    -2.2470 h1         1 B7K       0.062450
     36 H7          -6.1200    -0.2180     2.3330 ha         1 B7K       0.127000
     37 H8          -7.6630     2.3760     1.8480 ha         1 B7K       0.128000
     38 H9          -7.6080     1.3510     3.3800 ha         1 B7K       0.128000
     39 H10         -5.3760    -2.2120    -0.3460 h1         1 B7K       0.062450
     40 H11         -5.3960    -1.5870     1.2810 h1         1 B7K       0.062450
     41 H12         -3.1950    -2.5610     0.7320 hc         1 B7K       0.065700
     42 H13         -3.0450    -0.8390     1.0800 hc         1 B7K       0.065700
     43 H14          1.1380    -3.3100    -1.0150 h4         1 B7K       0.043100
     44 H15          5.6440     3.6100     0.1030 h4         1 B7K       0.053100
     45 H16          3.2050    -2.1550    -0.9830 hc         1 B7K       0.105700
     46 H17          2.1300    -2.4610     1.2250 hc         1 B7K       0.060700
     47 H18          4.0300    -3.8940     0.4670 hc         1 B7K       0.046033
     48 H19          5.1520    -2.8670     1.3650 hc         1 B7K       0.046033
     49 H20          3.8990    -3.7550     2.2180 hc         1 B7K       0.046033
     50 H21          2.5650    -0.2350     2.2740 hc         1 B7K       0.046033
     51 H22          3.1270    -1.5640     3.2710 hc         1 B7K       0.046033
     52 H23          4.2900    -0.6170     2.3650 hc         1 B7K       0.046033
     53 C15         -6.0190     0.8550     0.3660 c          1 B7K       0.679300
@<TRIPOS>BOND
     1     1     2 1   
     2     1     4 1   
     3     1    25 1   
     4     2     3 2   
     5     2    18 1   
     6     4    14 2   
     7     4    23 1   
     8     5     6 2   
     9     5    15 1   
    10     5    22 1   
    11     6    26 1   
    12     6    30 1   
    13     7     8 1   
    14     7    13 1   
    15     7    26 1   
    16     7    31 1   
    17     8     9 1   
    18     8    32 1   
    19     8    33 1   
    20     9    27 1   
    21     9    34 1   
    22     9    35 1   
    23    10    11 2   
    24    10    36 1   
    25    10    53 1   
    26    11    37 1   
    27    11    38 1   
    28    12    13 1   
    29    12    27 1   
    30    12    39 1   
    31    12    40 1   
    32    13    41 1   
    33    13    42 1   
    34    14    16 1   
    35    14    17 1   
    36    15    28 2   
    37    15    43 1   
    38    16    24 3   
    39    17    25 2   
    40    17    44 1   
    41    18    19 1   
    42    18    22 1   
    43    18    45 1   
    44    19    20 1   
    45    19    21 1   
    46    19    46 1   
    47    20    47 1   
    48    20    48 1   
    49    20    49 1   
    50    21    50 1   
    51    21    51 1   
    52    21    52 1   
    53    22    23 2   
    54    26    28 1   
    55    27    53 1   
    56    29    53 2   
@<TRIPOS>SUBSTRUCTURE
     1 B7K         1 TEMP              0 ****  ****    0 ROOT
