@<TRIPOS>MOLECULE
B7L
   36    39     1     0     0
SMALL
abcg2


@<TRIPOS>ATOM
      1 C13        -21.3400   -24.2890     0.8780 ca         1 B7L      -0.147000
      2 C18        -14.2170   -18.2650     0.1290 cc         1 B7L       0.456500
      3 C15        -19.7400   -21.4240     2.8820 c          1 B7L       0.711600
      4 C21        -14.0940   -20.2260    -0.8970 cd         1 B7L       0.398500
      5 C22        -11.8100   -20.6790    -0.3430 cc         1 B7L      -0.023000
      6 C23        -11.9330   -21.8560    -1.0230 cd         1 B7L      -0.238000
      7 C24        -13.1720   -22.1690    -1.6260 cc         1 B7L       0.383900
      8 C11        -20.1760   -22.2980     1.7120 ca         1 B7L      -0.100600
      9 C12        -20.9540   -23.4390     1.9210 ca         1 B7L      -0.093000
     10 C1         -14.9760   -19.1720    -0.6310 cc         1 B7L      -0.323800
     11 C2         -16.3830   -19.0190    -1.0250 c          1 B7L       0.658300
     12 N3         -16.8810   -20.0250    -1.7820 ns         1 B7L      -0.500900
     13 O4         -17.0460   -18.0330    -0.6850 o          1 B7L      -0.605100
     14 C5         -18.2720   -20.0950    -2.1950 c3         1 B7L       0.179200
     15 C6         -19.0310   -21.1450    -1.4620 cc         1 B7L      -0.027100
     16 O7         -19.1100   -20.9940    -0.0950 os         1 B7L      -0.126200
     17 C8         -19.8310   -22.0560     0.3850 ca         1 B7L       0.092100
     18 C9         -20.2190   -22.8790    -0.6890 ca         1 B7L      -0.140800
     19 C10        -19.6750   -22.2610    -1.8720 cd         1 B7L      -0.242200
     20 C14        -20.9810   -24.0220    -0.4360 ca         1 B7L      -0.106000
     21 O16        -18.6110   -20.8810     2.7960 o          1 B7L      -0.710000
     22 O17        -20.5430   -21.3390     3.8450 o          1 B7L      -0.710000
     23 N19        -12.9660   -18.6730     0.3410 nd         1 B7L      -0.591100
     24 N20        -12.8940   -19.8720    -0.2860 na         1 B7L       0.107900
     25 N25        -14.2260   -21.3800    -1.5690 nd         1 B7L      -0.651000
     26 H31        -21.9310   -25.1680     1.1040 ha         1 B7L       0.087000
     27 H36        -11.0960   -22.5330    -1.0950 ha         1 B7L       0.136000
     28 H37        -13.2860   -23.1000    -2.1700 h4         1 B7L       0.030100
     29 H30        -21.2590   -23.6630     2.9340 ha         1 B7L       0.126000
     30 H26        -16.2780   -20.8140    -1.9820 hn         1 B7L       0.333500
     31 H27        -18.7140   -19.1150    -2.0170 h1         1 B7L       0.064200
     32 H28        -18.3320   -20.3100    -3.2630 h1         1 B7L       0.064200
     33 H29        -19.7560   -22.6060    -2.8900 ha         1 B7L       0.186000
     34 H32        -21.2860   -24.6760    -1.2440 ha         1 B7L       0.089000
     35 H34        -14.5460   -17.3200     0.5310 h4         1 B7L       0.069800
     36 H35        -10.9180   -20.3320     0.1570 h4         1 B7L       0.159000
@<TRIPOS>BOND
     1     1     9 ar  
     2     1    20 ar  
     3     1    26 1   
     4     2    10 1   
     5     2    23 2   
     6     2    35 1   
     7     3     8 1   
     8     3    21 1   
     9     3    22 1   
    10     4    10 2   
    11     4    24 1   
    12     4    25 1   
    13     5     6 2   
    14     5    24 1   
    15     5    36 1   
    16     6     7 1   
    17     6    27 1   
    18     7    25 2   
    19     7    28 1   
    20     8     9 ar  
    21     8    17 ar  
    22     9    29 1   
    23    10    11 1   
    24    11    12 1   
    25    11    13 2   
    26    12    14 1   
    27    12    30 1   
    28    14    15 1   
    29    14    31 1   
    30    14    32 1   
    31    15    16 1   
    32    15    19 2   
    33    16    17 1   
    34    17    18 ar  
    35    18    19 1   
    36    18    20 ar  
    37    19    33 1   
    38    20    34 1   
    39    23    24 1   
@<TRIPOS>SUBSTRUCTURE
     1 B7L         1 TEMP              0 ****  ****    0 ROOT
