@<TRIPOS>MOLECULE
B7L
   36    39     1     0     0
SMALL
No Charge or Current Charge


@<TRIPOS>ATOM
      1 C13        -20.9030   -24.7480     0.3820 ca         1 B7L      -0.147000
      2 C18        -13.4300   -18.1050    -1.6390 cc         1 B7L       0.456500
      3 C15        -21.6910   -21.8050     2.7510 c          1 B7L       0.711600
      4 C21        -13.8800   -20.1830    -1.1530 cd         1 B7L       0.398500
      5 C22        -11.6240   -21.0530    -1.2560 cc         1 B7L      -0.023000
      6 C23        -12.2850   -22.2370    -0.9290 cd         1 B7L      -0.238000
      7 C24        -13.6590   -22.3240    -0.7400 cc         1 B7L       0.383900
      8 C11        -21.1030   -22.6160     1.6170 ca         1 B7L      -0.100600
      9 C12        -21.4500   -23.9830     1.4410 ca         1 B7L      -0.093000
     10 C1         -14.4790   -18.9810    -1.3270 cc         1 B7L      -0.323800
     11 C2         -15.8790   -18.5750    -1.2370 c          1 B7L       0.658300
     12 N3         -16.7570   -19.5730    -0.9170 ns         1 B7L      -0.500900
     13 O4         -16.2500   -17.4280    -1.4310 o          1 B7L      -0.605100
     14 C5         -18.2000   -19.4030    -0.7780 c3         1 B7L       0.179200
     15 C6         -18.8900   -20.6990    -0.4490 cc         1 B7L      -0.027100
     16 O7         -19.7460   -20.7530     0.6530 os         1 B7L      -0.126200
     17 C8         -20.2010   -22.0610     0.6860 ca         1 B7L       0.092100
     18 C9         -19.6840   -22.8160    -0.3380 ca         1 B7L      -0.140800
     19 C10        -18.8370   -21.9320    -1.0650 cd         1 B7L      -0.242200
     20 C14        -20.0020   -24.1630    -0.5290 ca         1 B7L      -0.106000
     21 O16        -21.0290   -20.9000     3.2410 o          1 B7L      -0.710000
     22 O17        -22.7980   -22.1170     3.1670 o          1 B7L      -0.710000
     23 N19        -12.2250   -18.6650    -1.6740 nd         1 B7L      -0.591100
     24 N20        -12.5140   -19.9890    -1.3640 na         1 B7L       0.107900
     25 N25        -14.5580   -21.3440    -0.8300 nd         1 B7L      -0.651000
     26 H31        -21.1820   -25.7930     0.2700 ha         1 B7L       0.087000
     27 H36        -11.7000   -23.1420    -0.8160 ha         1 B7L       0.136000
     28 H37        -14.1270   -23.2660    -0.4880 h4         1 B7L       0.030100
     29 H30        -22.1430   -24.4580     2.1330 ha         1 B7L       0.126000
     30 H26        -16.3520   -20.4930    -0.7720 hn         1 B7L       0.333500
     31 H27        -18.3970   -18.6690     0.0140 h1         1 B7L       0.064200
     32 H28        -18.6050   -19.0080    -1.7190 h1         1 B7L       0.064200
     33 H29        -18.2480   -22.1750    -1.9470 ha         1 B7L       0.186000
     34 H32        -19.5760   -24.7350    -1.3500 ha         1 B7L       0.089000
     35 H34        -13.5110   -17.0460    -1.8490 h4         1 B7L       0.069800
     36 H35        -10.5660   -20.8920    -1.4210 h4         1 B7L       0.159000
@<TRIPOS>BOND
     1     1     9 ar  
     2     1    20 ar  
     3     1    26 1   
     4     2    10 1   
     5     2    23 2   
     6     2    35 1   
     7     3     8 1   
     8     3    21 1   
     9     3    22 1   
    10     4    10 2   
    11     4    24 1   
    12     4    25 1   
    13     5     6 2   
    14     5    24 1   
    15     5    36 1   
    16     6     7 1   
    17     6    27 1   
    18     7    25 2   
    19     7    28 1   
    20     8     9 ar  
    21     8    17 ar  
    22     9    29 1   
    23    10    11 1   
    24    11    12 1   
    25    11    13 2   
    26    12    14 1   
    27    12    30 1   
    28    14    15 1   
    29    14    31 1   
    30    14    32 1   
    31    15    16 1   
    32    15    19 2   
    33    16    17 1   
    34    17    18 ar  
    35    18    19 1   
    36    18    20 ar  
    37    19    33 1   
    38    20    34 1   
    39    23    24 1   
@<TRIPOS>SUBSTRUCTURE
     1 B7L         1 TEMP              0 ****  ****    0 ROOT
