@<TRIPOS>MOLECULE
B7M
   45    44     1     0     0
SMALL
No Charge or Current Charge


@<TRIPOS>ATOM
      1 O           -8.2240    -2.1560    -0.2450 o          1 B7M      -0.514100
      2 C16         -7.9510    -1.0100     0.0930 c          1 B7M       0.574900
      3 C15         -6.6300    -0.6260     0.7650 c3         1 B7M      -0.204400
      4 C14         -5.5090    -0.3920    -0.2750 c3         1 B7M      -0.066400
      5 C13         -4.1660     0.0170     0.3690 c3         1 B7M      -0.075400
      6 C12         -3.0450     0.2500    -0.6680 c3         1 B7M      -0.074400
      7 C11         -1.7020     0.6590    -0.0230 c3         1 B7M      -0.074400
      8 C10         -0.5810     0.8920    -1.0590 c3         1 B7M      -0.074400
      9 C9           0.7620     1.3000    -0.4150 c3         1 B7M      -0.072400
     10 C8           1.8850     1.5320    -1.4480 c3         1 B7M      -0.043200
     11 C7           3.1910     1.9350    -0.7960 c2         1 B7M      -0.209200
     12 C6           4.0570     1.0910    -0.1970 ce         1 B7M      -0.184000
     13 C5           5.3130     1.5330     0.4220 ce         1 B7M      -0.185000
     14 C4           6.2030     0.7210     1.0350 c2         1 B7M      -0.202200
     15 C3           6.1050    -0.7820     1.2180 c3         1 B7M      -0.046200
     16 C2           6.5210    -1.5590    -0.0490 c3         1 B7M      -0.072400
     17 C1           6.4220    -3.0880     0.1180 c3         1 B7M      -0.090100
     18 H151        -6.7810     0.3150     1.3080 hc         1 B7M       0.067200
     19 H152        -6.3250    -1.4260     1.4500 hc         1 B7M       0.067200
     20 H141        -5.3630    -1.3080    -0.8610 hc         1 B7M       0.042700
     21 H142        -5.8250     0.3900    -0.9780 hc         1 B7M       0.042700
     22 H131        -4.3120     0.9340     0.9540 hc         1 B7M       0.040200
     23 H132        -3.8510    -0.7650     1.0710 hc         1 B7M       0.040200
     24 H121        -2.8990    -0.6670    -1.2530 hc         1 B7M       0.038200
     25 H122        -3.3600     1.0320    -1.3700 hc         1 B7M       0.038200
     26 H111        -1.8480     1.5760     0.5620 hc         1 B7M       0.038700
     27 H112        -1.3870    -0.1230     0.6790 hc         1 B7M       0.038700
     28 H101        -0.4350    -0.0250    -1.6450 hc         1 B7M       0.037700
     29 H102        -0.8960     1.6740    -1.7620 hc         1 B7M       0.037700
     30 H91C         0.6190     2.2170     0.1700 hc         1 B7M       0.040700
     31 H92C         1.0770     0.5190     0.2880 hc         1 B7M       0.040700
     32 H81C         2.0280     0.6180    -2.0370 hc         1 B7M       0.044200
     33 H82C         1.5680     2.3100    -2.1540 hc         1 B7M       0.044200
     34 H7           3.4020     3.0050    -0.8400 ha         1 B7M       0.166000
     35 H6           3.8280     0.0240    -0.1620 ha         1 B7M       0.170000
     36 H5           5.5230     2.6040     0.3700 ha         1 B7M       0.168000
     37 H4           7.1110     1.1520     1.4630 ha         1 B7M       0.166000
     38 H31C         6.7500    -1.0930     2.0500 hc         1 B7M       0.044700
     39 H32C         5.0850    -1.0660     1.5040 hc         1 B7M       0.044700
     40 H21C         5.8890    -1.2520    -0.8910 hc         1 B7M       0.039700
     41 H22C         7.5520    -1.2940    -0.3130 hc         1 B7M       0.039700
     42 H11C         7.0730    -3.4330     0.9310 hc         1 B7M       0.031700
     43 H12C         5.3930    -3.3880     0.3470 hc         1 B7M       0.031700
     44 H13C         6.7290    -3.5940    -0.8050 hc         1 B7M       0.031700
     45 HXT         -8.6650    -0.1740    -0.0780 h4         1 B7M      -0.021800
@<TRIPOS>BOND
     1     1     2 2   
     2     2     3 1   
     3     2    45 1   
     4     3     4 1   
     5     3    18 1   
     6     3    19 1   
     7     4     5 1   
     8     4    20 1   
     9     4    21 1   
    10     5     6 1   
    11     5    22 1   
    12     5    23 1   
    13     6     7 1   
    14     6    24 1   
    15     6    25 1   
    16     7     8 1   
    17     7    26 1   
    18     7    27 1   
    19     8     9 1   
    20     8    28 1   
    21     8    29 1   
    22     9    10 1   
    23     9    30 1   
    24     9    31 1   
    25    10    11 1   
    26    10    32 1   
    27    10    33 1   
    28    11    12 2   
    29    11    34 1   
    30    12    13 1   
    31    12    35 1   
    32    13    14 2   
    33    13    36 1   
    34    14    15 1   
    35    14    37 1   
    36    15    16 1   
    37    15    38 1   
    38    15    39 1   
    39    16    17 1   
    40    16    40 1   
    41    16    41 1   
    42    17    42 1   
    43    17    43 1   
    44    17    44 1   
@<TRIPOS>SUBSTRUCTURE
     1 B7M         1 TEMP              0 ****  ****    0 ROOT
