@<TRIPOS>MOLECULE
B7M
   45    44     1     0     0
SMALL
bcc


@<TRIPOS>ATOM
      1 O           -9.1420    -1.2600     0.4750 o          1 B7M      -0.514100
      2 C16         -8.3280    -0.5750    -0.0950 c          1 B7M       0.574900
      3 C15         -7.1090     0.0240     0.5280 c3         1 B7M      -0.204400
      4 C14         -5.8520    -0.2760    -0.2900 c3         1 B7M      -0.066400
      5 C13         -4.6100     0.3820     0.2960 c3         1 B7M      -0.075400
      6 C12         -3.3500     0.0980    -0.5110 c3         1 B7M      -0.074400
      7 C11         -2.1000     0.7300     0.0880 c3         1 B7M      -0.074400
      8 C10         -0.8460     0.4800    -0.7390 c3         1 B7M      -0.074400
      9 C9           0.4130     1.0620    -0.1080 c3         1 B7M      -0.072400
     10 C8           1.6590     0.8600    -0.9720 c3         1 B7M      -0.043200
     11 C7           2.8950     1.3910    -0.3230 c2         1 B7M      -0.159200
     12 C6           3.9580     0.6510     0.0090 ce         1 B7M      -0.134000
     13 C5           5.1390     1.1860     0.6650 ce         1 B7M      -0.135000
     14 C4           6.2380     0.5000     1.0060 c2         1 B7M      -0.152200
     15 C3           6.5140    -0.9500     0.7670 c3         1 B7M      -0.046200
     16 C2           7.6250    -1.1600    -0.2660 c3         1 B7M      -0.072400
     17 C1           7.9520    -2.6310    -0.4780 c3         1 B7M      -0.090100
     18 H151        -7.2650     1.1090     0.5520 hc         1 B7M       0.067200
     19 H152        -7.0060    -0.3190     1.5600 hc         1 B7M       0.067200
     20 H141        -5.7010    -1.3580    -0.3450 hc         1 B7M       0.042700
     21 H142        -5.9960     0.0680    -1.3190 hc         1 B7M       0.042700
     22 H131        -4.7680     1.4640     0.3560 hc         1 B7M       0.040200
     23 H132        -4.4690     0.0380     1.3270 hc         1 B7M       0.040200
     24 H121        -3.2050    -0.9850    -0.5880 hc         1 B7M       0.038200
     25 H122        -3.4870     0.4600    -1.5360 hc         1 B7M       0.038200
     26 H111        -2.2530     1.8100     0.1940 hc         1 B7M       0.038700
     27 H112        -1.9500     0.3460     1.1030 hc         1 B7M       0.038700
     28 H101        -0.7110    -0.5970    -0.8800 hc         1 B7M       0.037700
     29 H102        -0.9830     0.9030    -1.7400 hc         1 B7M       0.037700
     30 H91C         0.2710     2.1330     0.0750 hc         1 B7M       0.040700
     31 H92C         0.5760     0.6040     0.8720 hc         1 B7M       0.040700
     32 H81C         1.7880    -0.2040    -1.1960 hc         1 B7M       0.044200
     33 H82C         1.5010     1.3630    -1.9330 hc         1 B7M       0.044200
     34 H7           2.9020     2.4550    -0.0940 ha         1 B7M       0.116000
     35 H6           3.9420    -0.4100    -0.2240 ha         1 B7M       0.120000
     36 H5           5.1120     2.2470     0.8940 ha         1 B7M       0.118000
     37 H4           7.0410     1.0500     1.4880 ha         1 B7M       0.116000
     38 H31C         6.8200    -1.4160     1.7100 hc         1 B7M       0.044700
     39 H32C         5.6150    -1.4800     0.4420 hc         1 B7M       0.044700
     40 H21C         7.3200    -0.7070    -1.2130 hc         1 B7M       0.039700
     41 H22C         8.5230    -0.6250     0.0550 hc         1 B7M       0.039700
     42 H11C         8.2960    -3.0980     0.4470 hc         1 B7M       0.031700
     43 H12C         7.0760    -3.1850    -0.8200 hc         1 B7M       0.031700
     44 H13C         8.7360    -2.7610    -1.2250 hc         1 B7M       0.031700
     45 HXT         -8.4500    -0.3380    -1.1690 h4         1 B7M      -0.021800
@<TRIPOS>BOND
     1     1     2 2   
     2     2     3 1   
     3     2    45 1   
     4     3     4 1   
     5     3    18 1   
     6     3    19 1   
     7     4     5 1   
     8     4    20 1   
     9     4    21 1   
    10     5     6 1   
    11     5    22 1   
    12     5    23 1   
    13     6     7 1   
    14     6    24 1   
    15     6    25 1   
    16     7     8 1   
    17     7    26 1   
    18     7    27 1   
    19     8     9 1   
    20     8    28 1   
    21     8    29 1   
    22     9    10 1   
    23     9    30 1   
    24     9    31 1   
    25    10    11 1   
    26    10    32 1   
    27    10    33 1   
    28    11    12 2   
    29    11    34 1   
    30    12    13 1   
    31    12    35 1   
    32    13    14 2   
    33    13    36 1   
    34    14    15 1   
    35    14    37 1   
    36    15    16 1   
    37    15    38 1   
    38    15    39 1   
    39    16    17 1   
    40    16    40 1   
    41    16    41 1   
    42    17    42 1   
    43    17    43 1   
    44    17    44 1   
@<TRIPOS>SUBSTRUCTURE
     1 B7M         1 TEMP              0 ****  ****    0 ROOT
