@<TRIPOS>MOLECULE
B7O
   58    61     1     0     0
SMALL
bcc


@<TRIPOS>ATOM
      1 CAA         -9.5450     1.4320     1.2820 c3         1 B7O      -0.083767
      2 CBF         -9.3160     0.5630     0.0380 c3         1 B7O      -0.004700
      3 CAB        -10.2950    -0.6100     0.0800 c3         1 B7O      -0.083767
      4 CAC         -9.6050     1.3850    -1.2270 c3         1 B7O      -0.083767
      5 CBC         -7.8620     0.1110     0.0130 ca         1 B7O      -0.037300
      6 CAN         -6.8460     1.0670    -0.0570 ca         1 B7O      -0.138000
      7 CAK         -5.5110     0.7090    -0.0910 ca         1 B7O      -0.087500
      8 CAM         -7.4760    -1.2260     0.0550 ca         1 B7O      -0.138000
      9 CAJ         -6.1390    -1.5930     0.0120 ca         1 B7O      -0.087500
     10 CBA         -5.1340    -0.6340    -0.0510 ca         1 B7O      -0.158600
     11 CAW         -3.7180    -1.1060    -0.1140 c          1 B7O       0.689700
     12 OAD         -3.4520    -2.2670    -0.3840 o          1 B7O      -0.589100
     13 NAS         -2.7780    -0.1650     0.1460 ns         1 B7O      -0.464100
     14 CAY         -1.3840    -0.2830     0.1470 ca         1 B7O       0.048600
     15 CAG         -0.6580     0.8750     0.4230 ca         1 B7O      -0.140500
     16 CAI          0.7250     0.8930     0.4260 ca         1 B7O      -0.140500
     17 CAF         -0.6740    -1.4550    -0.1190 ca         1 B7O      -0.140500
     18 CAH          0.7100    -1.4380    -0.1080 ca         1 B7O      -0.140500
     19 CAZ          1.4350    -0.2760     0.1490 ca         1 B7O       0.048600
     20 NAT          2.8300    -0.3740     0.1010 ns         1 B7O      -0.465100
     21 CAX          3.7620     0.5820     0.3390 c          1 B7O       0.692700
     22 OAE          3.4880     1.7460     0.5860 o          1 B7O      -0.585100
     23 CBB          5.1770     0.1240     0.2550 ca         1 B7O      -0.160600
     24 CAP          6.1460     1.0770    -0.0480 ca         1 B7O      -0.068000
     25 CBE          7.4820     0.7290    -0.1350 ca         1 B7O       0.041100
     26 OAV          8.3840     1.6860    -0.4510 os         1 B7O      -0.301900
     27 CAR          9.7210     1.3520    -0.1050 c6         1 B7O       0.093400
     28 CAQ         10.0410    -0.0460    -0.5710 c6         1 B7O       0.094400
     29 OAU          9.1600    -0.9840     0.0380 os         1 B7O      -0.304900
     30 CBD          7.8730    -0.5940     0.1100 ca         1 B7O       0.086100
     31 CAO          6.9120    -1.5370     0.4500 ca         1 B7O      -0.140000
     32 CAL          5.5750    -1.1860     0.5190 ca         1 B7O      -0.101000
     33 H1         -10.5760     1.7900     1.3120 hc         1 B7O       0.037033
     34 H2          -9.3590     0.8660     2.1970 hc         1 B7O       0.037033
     35 H3          -8.8920     2.3060     1.2940 hc         1 B7O       0.037033
     36 H4         -10.2050    -1.2520    -0.7980 hc         1 B7O       0.037033
     37 H5         -10.1630    -1.2310     0.9680 hc         1 B7O       0.037033
     38 H6         -11.3170    -0.2270     0.1020 hc         1 B7O       0.037033
     39 H7          -8.9570     2.2570    -1.3080 hc         1 B7O       0.037033
     40 H8          -9.4710     0.7820    -2.1270 hc         1 B7O       0.037033
     41 H9         -10.6370     1.7420    -1.2160 hc         1 B7O       0.037033
     42 H10         -7.0930     2.1210    -0.0890 ha         1 B7O       0.135500
     43 H11         -4.7820     1.5050    -0.1820 ha         1 B7O       0.140500
     44 H12         -8.2170    -2.0110     0.1110 ha         1 B7O       0.135500
     45 H13         -5.8800    -2.6440     0.0290 ha         1 B7O       0.140500
     46 H14         -3.1090     0.7370     0.4490 hn         1 B7O       0.318500
     47 H15         -1.1840     1.7980     0.6360 ha         1 B7O       0.147500
     48 H16          1.2310     1.8200     0.6380 ha         1 B7O       0.147500
     49 H17         -1.1800    -2.3780    -0.3460 ha         1 B7O       0.147500
     50 H18          1.2360    -2.3630    -0.3140 ha         1 B7O       0.147500
     51 H19          3.1720    -1.2770    -0.1900 hn         1 B7O       0.319500
     52 H20          5.8640     2.1060    -0.2350 ha         1 B7O       0.168000
     53 H21         10.3710     2.0750    -0.5950 h1         1 B7O       0.070700
     54 H22          9.8610     1.4380     0.9780 h1         1 B7O       0.070700
     55 H23          9.9620    -0.1160    -1.6600 h1         1 B7O       0.070200
     56 H24         11.0540    -0.3240    -0.2820 h1         1 B7O       0.070200
     57 H25          7.2220    -2.5530     0.6590 ha         1 B7O       0.150000
     58 H26          4.8620    -1.9490     0.8030 ha         1 B7O       0.135000
@<TRIPOS>BOND
     1     1     2 1   
     2     1    33 1   
     3     1    34 1   
     4     1    35 1   
     5     2     3 1   
     6     2     4 1   
     7     2     5 1   
     8     3    36 1   
     9     3    37 1   
    10     3    38 1   
    11     4    39 1   
    12     4    40 1   
    13     4    41 1   
    14     5     6 ar  
    15     5     8 ar  
    16     6     7 ar  
    17     6    42 1   
    18     7    10 ar  
    19     7    43 1   
    20     8     9 ar  
    21     8    44 1   
    22     9    10 ar  
    23     9    45 1   
    24    10    11 1   
    25    11    12 2   
    26    11    13 1   
    27    13    14 1   
    28    13    46 1   
    29    14    15 ar  
    30    14    17 ar  
    31    15    16 ar  
    32    15    47 1   
    33    16    19 ar  
    34    16    48 1   
    35    17    18 ar  
    36    17    49 1   
    37    18    19 ar  
    38    18    50 1   
    39    19    20 1   
    40    20    21 1   
    41    20    51 1   
    42    21    22 2   
    43    21    23 1   
    44    23    24 ar  
    45    23    32 ar  
    46    24    25 ar  
    47    24    52 1   
    48    25    26 1   
    49    25    30 ar  
    50    26    27 1   
    51    27    28 1   
    52    27    53 1   
    53    27    54 1   
    54    28    29 1   
    55    28    55 1   
    56    28    56 1   
    57    29    30 1   
    58    30    31 ar  
    59    31    32 ar  
    60    31    57 1   
    61    32    58 1   
@<TRIPOS>SUBSTRUCTURE
     1 B7O         1 TEMP              0 ****  ****    0 ROOT
