@<TRIPOS>MOLECULE
B7O
   58    61     1     0     0
SMALL
No Charge or Current Charge


@<TRIPOS>ATOM
      1 CAA         -9.6850     1.4430     1.3610 c3         1 B7O      -0.083767
      2 CBF         -9.4460     0.5880     0.0870 c3         1 B7O      -0.004700
      3 CAB        -10.4870    -0.5670     0.0850 c3         1 B7O      -0.083767
      4 CAC         -9.6970     1.4600    -1.1730 c3         1 B7O      -0.083767
      5 CBC         -7.9770     0.0840     0.0770 ca         1 B7O      -0.037300
      6 CAN         -6.9180     1.0180     0.0780 ca         1 B7O      -0.120000
      7 CAK         -5.5740     0.6070     0.0690 ca         1 B7O      -0.069500
      8 CAM         -7.6370    -1.2900     0.0660 ca         1 B7O      -0.120000
      9 CAJ         -6.2950    -1.7060     0.0570 ca         1 B7O      -0.069500
     10 CBA         -5.2400    -0.7680     0.0580 ca         1 B7O      -0.158600
     11 CAW         -3.8010    -1.2560     0.0470 c          1 B7O       0.622700
     12 OAD         -3.5400    -2.4550     0.0380 o          1 B7O      -0.589100
     13 NAS         -2.8260    -0.2620     0.0480 ns         1 B7O      -0.138000
     14 CAY         -1.4020    -0.3050     0.0430 ca         1 B7O      -0.044000
     15 CAG         -0.7160     0.9230     0.0270 ca         1 B7O      -0.122500
     16 CAI          0.6890     0.9670     0.0210 ca         1 B7O      -0.122500
     17 CAF         -0.6510    -1.4990     0.0550 ca         1 B7O      -0.122500
     18 CAH          0.7540    -1.4550     0.0500 ca         1 B7O      -0.122500
     19 CAZ          1.4400    -0.2280     0.0320 ca         1 B7O      -0.044000
     20 NAT          2.8640    -0.2700     0.0280 ns         1 B7O      -0.139000
     21 CAX          3.8380     0.7230    -0.0090 c          1 B7O       0.625700
     22 OAE          3.5780     1.9210    -0.0530 o          1 B7O      -0.585100
     23 CBB          5.2770     0.2370     0.0070 ca         1 B7O      -0.160600
     24 CAP          6.3280     1.1860    -0.0290 ca         1 B7O      -0.050000
     25 CBE          7.6700     0.7740    -0.0100 ca         1 B7O       0.041100
     26 OAV          8.6720     1.7260    -0.0240 os         1 B7O      -0.325100
     27 CAR         10.0080     1.2930     0.3160 c6         1 B7O       0.116600
     28 CAQ         10.3080    -0.0620    -0.3600 c6         1 B7O       0.117600
     29 OAU          9.3000    -1.0290     0.0090 os         1 B7O      -0.328100
     30 CBD          7.9860    -0.6050     0.0220 ca         1 B7O       0.086100
     31 CAO          6.9560    -1.5540     0.0690 ca         1 B7O      -0.122000
     32 CAL          5.6110    -1.1410     0.0610 ca         1 B7O      -0.083000
     33 H1         -10.7260     1.7870     1.4140 hc         1 B7O       0.037033
     34 H2          -9.4760     0.8570     2.2650 hc         1 B7O       0.037033
     35 H3          -9.0440     2.3320     1.3800 hc         1 B7O       0.037033
     36 H4         -10.3840    -1.1910    -0.8110 hc         1 B7O       0.037033
     37 H5         -10.3750    -1.2030     0.9710 hc         1 B7O       0.037033
     38 H6         -11.5100    -0.1710     0.0920 hc         1 B7O       0.037033
     39 H7          -9.0560     2.3490    -1.1860 hc         1 B7O       0.037033
     40 H8          -9.4970     0.8860    -2.0860 hc         1 B7O       0.037033
     41 H9         -10.7380     1.8040    -1.2110 hc         1 B7O       0.037033
     42 H10         -7.1280     2.0840     0.0860 ha         1 B7O       0.117500
     43 H11         -4.8070     1.3770     0.0700 ha         1 B7O       0.122500
     44 H12         -8.4000    -2.0630     0.0650 ha         1 B7O       0.117500
     45 H13         -6.0800    -2.7720     0.0490 ha         1 B7O       0.122500
     46 H14         -3.1990     0.6770     0.0530 hn         1 B7O       0.152000
     47 H15         -1.2750     1.8570     0.0190 ha         1 B7O       0.129500
     48 H16          1.1690     1.9400     0.0100 ha         1 B7O       0.129500
     49 H17         -1.1310    -2.4720     0.0700 ha         1 B7O       0.129500
     50 H18          1.3130    -2.3890     0.0590 ha         1 B7O       0.129500
     51 H19          3.2380    -1.2080     0.0580 hn         1 B7O       0.153000
     52 H20          6.1100     2.2510    -0.0620 ha         1 B7O       0.150000
     53 H21         10.7310     2.0560    -0.0030 h1         1 B7O       0.070700
     54 H22         10.0800     1.1820     1.4070 h1         1 B7O       0.070700
     55 H23         10.3000     0.0640    -1.4520 h1         1 B7O       0.070200
     56 H24         11.2980    -0.4340    -0.0630 h1         1 B7O       0.070200
     57 H25          7.2000    -2.6130     0.1020 ha         1 B7O       0.132000
     58 H26          4.8440    -1.9110     0.0940 ha         1 B7O       0.117000
@<TRIPOS>BOND
     1     1     2 1   
     2     1    33 1   
     3     1    34 1   
     4     1    35 1   
     5     2     3 1   
     6     2     4 1   
     7     2     5 1   
     8     3    36 1   
     9     3    37 1   
    10     3    38 1   
    11     4    39 1   
    12     4    40 1   
    13     4    41 1   
    14     5     6 ar  
    15     5     8 ar  
    16     6     7 ar  
    17     6    42 1   
    18     7    10 ar  
    19     7    43 1   
    20     8     9 ar  
    21     8    44 1   
    22     9    10 ar  
    23     9    45 1   
    24    10    11 1   
    25    11    12 2   
    26    11    13 1   
    27    13    14 1   
    28    13    46 1   
    29    14    15 ar  
    30    14    17 ar  
    31    15    16 ar  
    32    15    47 1   
    33    16    19 ar  
    34    16    48 1   
    35    17    18 ar  
    36    17    49 1   
    37    18    19 ar  
    38    18    50 1   
    39    19    20 1   
    40    20    21 1   
    41    20    51 1   
    42    21    22 2   
    43    21    23 1   
    44    23    24 ar  
    45    23    32 ar  
    46    24    25 ar  
    47    24    52 1   
    48    25    26 1   
    49    25    30 ar  
    50    26    27 1   
    51    27    28 1   
    52    27    53 1   
    53    27    54 1   
    54    28    29 1   
    55    28    55 1   
    56    28    56 1   
    57    29    30 1   
    58    30    31 ar  
    59    31    32 ar  
    60    31    57 1   
    61    32    58 1   
@<TRIPOS>SUBSTRUCTURE
     1 B7O         1 TEMP              0 ****  ****    0 ROOT
