@<TRIPOS>MOLECULE
B7Q
   52    55     1     0     0
SMALL
abcg2


@<TRIPOS>ATOM
      1 N            4.6230     0.7420     0.7070 n          1 B7Q       0.124000
      2 C            4.5790    -0.6510     0.9100 c          1 B7Q       0.559000
      3 O            5.5260    -1.2000     1.4270 o          1 B7Q      -0.459000
      4 C1           3.6510     1.4600     0.1060 cc         1 B7Q       0.288000
      5 C10          1.1600    -1.0340    -0.7510 cc         1 B7Q      -0.228800
      6 C11         -0.0850    -0.4360    -0.6800 cd         1 B7Q      -0.140000
      7 C12         -2.3570    -1.0380    -1.5590 c6         1 B7Q       0.090300
      8 C13         -3.1110    -1.5800    -0.3470 c6         1 B7Q      -0.118900
      9 C14         -4.6100    -1.3880    -0.5430 c6         1 B7Q       0.096000
     10 C16         -6.0000     0.2170     1.3660 c3         1 B7Q       0.021600
     11 C17         -4.2530     0.5220    -1.9910 c6         1 B7Q       0.096000
     12 C18         -2.7400     0.4100    -1.8460 c6         1 B7Q      -0.118900
     13 C19          0.9480    -2.1680    -1.5610 cc         1 B7Q       0.284900
     14 C2           4.0770     2.7800     0.1030 cd         1 B7Q      -0.212000
     15 C3           3.3940     3.8940    -0.4100 ch         1 B7Q       0.367000
     16 C4           5.3400     2.7220     0.7430 cd         1 B7Q       0.315900
     17 C5           3.3470    -1.2720     0.4630 cd         1 B7Q      -0.258400
     18 C6           3.1440    -2.7420     0.7580 c3         1 B7Q       0.010500
     19 C7           4.0650    -3.6360    -0.0720 c3         1 B7Q      -0.088600
     20 C8           3.2360    -3.0620     2.2520 c3         1 B7Q      -0.088600
     21 C9           2.4010    -0.5240    -0.1840 cc         1 B7Q       0.278800
     22 N1           2.5620     0.8270    -0.3510 na         1 B7Q      -0.790000
     23 N2           2.8290     4.8060    -0.8340 n1         1 B7Q      -0.474000
     24 N3           5.6610     1.5090     1.0990 nc         1 B7Q      -0.470800
     25 N4          -0.9190    -1.1970    -1.4000 na         1 B7Q       0.144800
     26 N5          -4.9130     0.0100    -0.8010 n          1 B7Q      -0.416800
     27 N6          -0.3080    -2.2510    -1.9390 nd         1 B7Q      -0.515800
     28 O1          -5.5810     2.0550    -0.1090 o          1 B7Q      -0.557100
     29 CL          -6.7770     1.4270     2.4070 cl         1 B7Q      -0.216000
     30 H1          -0.4100     0.4500    -0.1590 h4         1 B7Q       0.165000
     31 H2          -2.6130    -1.6430    -2.4320 h1         1 B7Q       0.092700
     32 H3          -2.8940    -2.6410    -0.2110 hc         1 B7Q       0.065450
     33 H4          -2.7900    -1.0580     0.5590 hc         1 B7Q       0.065450
     34 H5          -4.9540    -1.9760    -1.4000 h1         1 B7Q       0.066950
     35 H6          -5.1550    -1.7600     0.3200 h1         1 B7Q       0.066950
     36 H7          -6.7370    -0.5570     1.1550 h1         1 B7Q       0.079200
     37 H8          -5.1890    -0.2340     1.9360 h1         1 B7Q       0.079200
     38 H9          -4.5470     1.5530    -2.1600 h1         1 B7Q       0.066950
     39 H10         -4.5930    -0.0620    -2.8510 h1         1 B7Q       0.066950
     40 H11         -2.4170     1.0670    -1.0340 hc         1 B7Q       0.065450
     41 H12         -2.2550     0.7530    -2.7620 hc         1 B7Q       0.065450
     42 H13          1.6730    -2.8950    -1.8940 h4         1 B7Q       0.054100
     43 H14          6.0000     3.5530     0.9410 h4         1 B7Q       0.052100
     44 H16          2.1200    -2.9810     0.4680 hc         1 B7Q       0.046700
     45 H17          3.8340    -4.6860     0.1130 hc         1 B7Q       0.040700
     46 H18          3.9410    -3.4540    -1.1410 hc         1 B7Q       0.040700
     47 H19          5.1140    -3.4790     0.1760 hc         1 B7Q       0.040700
     48 H20          2.5730    -2.4200     2.8330 hc         1 B7Q       0.040700
     49 H21          2.9250    -4.0940     2.4210 hc         1 B7Q       0.040700
     50 H22          4.2470    -2.9530     2.6400 hc         1 B7Q       0.040700
     51 H15          1.8890     1.3430    -0.8990 hn         1 B7Q       0.531000
     52 C15         -5.4770     0.8590     0.0850 c          1 B7Q       0.600100
@<TRIPOS>BOND
     1     1     2 1   
     2     1     4 1   
     3     1    24 1   
     4     2     3 2   
     5     2    17 1   
     6     4    14 2   
     7     4    22 1   
     8     5     6 2   
     9     5    13 1   
    10     5    21 1   
    11     6    25 1   
    12     6    30 1   
    13     7     8 1   
    14     7    12 1   
    15     7    25 1   
    16     7    31 1   
    17     8     9 1   
    18     8    32 1   
    19     8    33 1   
    20     9    26 1   
    21     9    34 1   
    22     9    35 1   
    23    10    29 1   
    24    10    36 1   
    25    10    37 1   
    26    10    52 1   
    27    11    12 1   
    28    11    26 1   
    29    11    38 1   
    30    11    39 1   
    31    12    40 1   
    32    12    41 1   
    33    13    27 2   
    34    13    42 1   
    35    14    15 1   
    36    14    16 1   
    37    15    23 3   
    38    16    24 2   
    39    16    43 1   
    40    17    18 1   
    41    17    21 2   
    42    18    19 1   
    43    18    20 1   
    44    18    44 1   
    45    19    45 1   
    46    19    46 1   
    47    19    47 1   
    48    20    48 1   
    49    20    49 1   
    50    20    50 1   
    51    21    22 1   
    52    22    51 1   
    53    25    27 1   
    54    26    52 1   
    55    28    52 2   
@<TRIPOS>SUBSTRUCTURE
     1 B7Q         1 TEMP              0 ****  ****    0 ROOT
