@<TRIPOS>MOLECULE
B7Q
   52    55     1     0     0
SMALL
No Charge or Current Charge


@<TRIPOS>ATOM
      1 N            4.8530     0.6340     0.7360 n          1 B7Q       0.124000
      2 C            4.9730    -0.7400     0.5850 c          1 B7Q       0.559000
      3 O            6.0670    -1.2930     0.6400 o          1 B7Q      -0.459000
      4 C1           3.6530     1.2370     0.6890 cc         1 B7Q       0.288000
      5 C10          1.1770    -1.2570    -0.3120 cc         1 B7Q      -0.228800
      6 C11         -0.0090    -0.5700    -0.2890 cd         1 B7Q      -0.140000
      7 C12         -2.3830    -1.1550    -1.0500 c6         1 B7Q       0.090300
      8 C13         -3.0890    -0.9090     0.2980 c6         1 B7Q      -0.118900
      9 C14         -4.6000    -0.6490     0.1060 c6         1 B7Q       0.096000
     10 C16         -7.0690     0.9870     0.3170 c3         1 B7Q       0.021600
     11 C17         -4.1110     0.3380    -2.1750 c6         1 B7Q       0.096000
     12 C18         -2.6060     0.0740    -1.9540 c6         1 B7Q      -0.118900
     13 C19          0.8860    -2.4880    -0.9420 cc         1 B7Q       0.284900
     14 C2           3.7000     2.5860     0.8770 cd         1 B7Q      -0.212000
     15 C3           2.6600     3.5450     0.8870 ch         1 B7Q       0.367000
     16 C4           5.1020     2.7920     1.0600 cd         1 B7Q       0.315900
     17 C5           3.6530    -1.4380     0.3480 cd         1 B7Q      -0.258400
     18 C6           3.7450    -2.9710     0.3830 c3         1 B7Q       0.010500
     19 C7           4.3590    -3.5570    -0.9080 c3         1 B7Q      -0.088600
     20 C8           4.4020    -3.5500     1.6630 c3         1 B7Q      -0.088600
     21 C9           2.4440    -0.7260     0.1600 cc         1 B7Q       0.278800
     22 N1           2.4330     0.6490     0.4430 na         1 B7Q      -0.790000
     23 N2           1.7810     4.3140     0.8890 n1         1 B7Q      -0.474000
     24 N3           5.7740     1.6440     0.9780 nc         1 B7Q      -0.470800
     25 N4          -0.9390    -1.4410    -0.8650 na         1 B7Q       0.144800
     26 N5          -4.9290     0.3900    -0.9230 n          1 B7Q      -0.416800
     27 N6          -0.3790    -2.6360    -1.2810 nd         1 B7Q      -0.515800
     28 O1          -6.6480     1.4520    -2.0190 o          1 B7Q      -0.557100
     29 Cl          -8.6190     1.9500     0.2010 cl         1 B7Q      -0.216000
     30 H1          -0.2810     0.4110     0.0820 h4         1 B7Q       0.165000
     31 H2          -2.8400    -2.0320    -1.5310 h1         1 B7Q       0.092700
     32 H3          -2.9470    -1.7730     0.9620 hc         1 B7Q       0.065450
     33 H4          -2.6390    -0.0470     0.8090 hc         1 B7Q       0.065450
     34 H5          -5.0880    -1.5910    -0.1880 h1         1 B7Q       0.066950
     35 H6          -5.0130    -0.3660     1.0840 h1         1 B7Q       0.066950
     36 H7          -7.3330    -0.0410     0.5920 h1         1 B7Q       0.079200
     37 H8          -6.4620     1.4300     1.1150 h1         1 B7Q       0.079200
     38 H9          -4.2170     1.2850    -2.7240 h1         1 B7Q       0.066950
     39 H10         -4.5200    -0.4530    -2.8210 h1         1 B7Q       0.066950
     40 H11         -2.1480     0.9650    -1.5020 hc         1 B7Q       0.065450
     41 H12         -2.1120    -0.0750    -2.9240 hc         1 B7Q       0.065450
     42 H13          1.5590    -3.2840    -1.2190 h4         1 B7Q       0.054100
     43 H14          5.6330     3.7180     1.2440 h4         1 B7Q       0.052100
     44 H16          2.7360    -3.3740     0.4760 hc         1 B7Q       0.046700
     45 H17          4.2640    -4.6500    -0.9180 hc         1 B7Q       0.040700
     46 H18          3.8490    -3.1640    -1.7960 hc         1 B7Q       0.040700
     47 H19          5.4230    -3.3090    -0.9920 hc         1 B7Q       0.040700
     48 H20          4.0300    -3.0340     2.5560 hc         1 B7Q       0.040700
     49 H21          4.1550    -4.6140     1.7650 hc         1 B7Q       0.040700
     50 H22          5.4940    -3.4770     1.6460 hc         1 B7Q       0.040700
     51 H15          1.5800     1.1950     0.3870 hn         1 B7Q       0.531000
     52 C15         -6.2300     0.9540    -0.9790 c          1 B7Q       0.600100
@<TRIPOS>BOND
     1     1     2 1   
     2     1     4 1   
     3     1    24 1   
     4     2     3 2   
     5     2    17 1   
     6     4    14 2   
     7     4    22 1   
     8     5     6 2   
     9     5    13 1   
    10     5    21 1   
    11     6    25 1   
    12     6    30 1   
    13     7     8 1   
    14     7    12 1   
    15     7    25 1   
    16     7    31 1   
    17     8     9 1   
    18     8    32 1   
    19     8    33 1   
    20     9    26 1   
    21     9    34 1   
    22     9    35 1   
    23    10    29 1   
    24    10    36 1   
    25    10    37 1   
    26    10    52 1   
    27    11    12 1   
    28    11    26 1   
    29    11    38 1   
    30    11    39 1   
    31    12    40 1   
    32    12    41 1   
    33    13    27 2   
    34    13    42 1   
    35    14    15 1   
    36    14    16 1   
    37    15    23 3   
    38    16    24 2   
    39    16    43 1   
    40    17    18 1   
    41    17    21 2   
    42    18    19 1   
    43    18    20 1   
    44    18    44 1   
    45    19    45 1   
    46    19    46 1   
    47    19    47 1   
    48    20    48 1   
    49    20    49 1   
    50    20    50 1   
    51    21    22 1   
    52    22    51 1   
    53    25    27 1   
    54    26    52 1   
    55    28    52 2   
@<TRIPOS>SUBSTRUCTURE
     1 B7Q         1 TEMP              0 ****  ****    0 ROOT
