@<TRIPOS>MOLECULE
B7R
   63    68     1     0     0
SMALL
abcg2


@<TRIPOS>ATOM
      1 C1         -58.5390   -17.7010   -10.3100 ca         1 B7R       0.117900
      2 C2         -57.8940   -15.5630   -11.1050 ca         1 B7R       0.117900
      3 C3         -48.7230   -17.0810    -8.6540 cc         1 B7R       0.252900
      4 C7         -57.5990   -16.6820   -10.3350 ca         1 B7R      -0.071400
      5 C8         -49.3790   -17.3090    -7.4260 cc         1 B7R       0.181000
      6 C9         -54.0760   -17.0550    -8.0530 ca         1 B7R       0.294800
      7 C10        -52.6610   -16.8220    -9.9990 ca         1 B7R       0.473900
      8 C11        -51.8080   -17.1440    -7.9020 ca         1 B7R       0.451900
      9 C12        -55.3740   -17.1040    -7.4520 cc         1 B7R      -0.377800
     10 C13        -56.4700   -16.9670    -8.2220 cd         1 B7R      -0.020400
     11 C14        -55.1650   -16.7220   -10.2670 c          1 B7R       0.607600
     12 C15        -50.3260   -15.4050   -11.7490 cx         1 B7R      -0.127900
     13 C16        -51.0560   -15.5950   -13.0560 cx         1 B7R      -0.127900
     14 C19        -44.1230   -17.1960    -4.9710 c6         1 B7R       0.164300
     15 C20        -44.1650   -19.3960    -5.9520 c6         1 B7R       0.164300
     16 C21        -45.8420   -17.7020    -6.7120 c6         1 B7R       0.097300
     17 C22        -51.1880   -16.6180   -11.9660 cx         1 B7R       0.186200
     18 N25        -59.6850   -17.6130   -10.9880 nb         1 B7R      -0.162500
     19 N26        -59.0310   -15.4730   -11.7920 nb         1 B7R      -0.162500
     20 N29        -51.5930   -16.9670    -9.2100 nb         1 B7R      -0.329000
     21 C4         -48.3580   -17.5540    -6.5190 cd         1 B7R      -0.217000
     22 C5         -59.8720   -16.5040   -11.6990 ca         1 B7R       0.115900
     23 C6         -53.9910   -16.8590    -9.4500 ca         1 B7R      -0.401600
     24 C17        -45.5420   -16.9020    -5.4470 c6         1 B7R      -0.089900
     25 C18        -45.5830   -19.1890    -6.4720 c6         1 B7R      -0.089900
     26 C23        -50.5450   -17.9750   -12.1440 c3         1 B7R      -0.072100
     27 N27        -47.4000   -17.1810    -8.5040 nd         1 B7R      -0.524800
     28 N28        -52.9960   -17.1950    -7.2750 nb         1 B7R      -0.303000
     29 N30        -47.1960   -17.4610    -7.2060 na         1 B7R       0.129800
     30 N31        -56.3940   -16.7760    -9.5830 n          1 B7R      -0.209200
     31 N32        -43.9270   -18.6240    -4.7350 n3         1 B7R      -0.720600
     32 N34        -52.4700   -16.6350   -11.3100 nu         1 B7R      -0.891100
     33 O35        -55.1720   -16.5750   -11.4990 o          1 B7R      -0.591000
     34 H1         -58.3630   -18.6030    -9.7330 h4         1 B7R       0.038100
     35 H2         -57.2030   -14.7310   -11.1600 h4         1 B7R       0.038100
     36 H3         -49.1570   -16.8520    -9.6090 h4         1 B7R       0.064100
     37 H4         -55.4660   -17.2420    -6.3860 ha         1 B7R       0.217000
     38 H5         -57.4710   -16.9830    -7.8150 h4         1 B7R       0.205000
     39 H6         -49.2550   -15.5510   -11.7340 hc         1 B7R       0.080450
     40 H7         -50.6970   -14.6500   -11.0700 hc         1 B7R       0.080450
     41 H8         -50.4840   -15.8740   -13.9300 hc         1 B7R       0.080450
     42 H9         -51.9100   -14.9590   -13.2510 hc         1 B7R       0.080450
     43 H10        -43.9270   -16.6620    -4.0400 h1         1 B7R       0.037200
     44 H11        -43.4010   -16.8200    -5.7200 h1         1 B7R       0.037200
     45 H12        -44.0020   -20.4520    -5.7290 h1         1 B7R       0.037200
     46 H13        -43.4420   -19.1150    -6.7410 h1         1 B7R       0.037200
     47 H14        -45.1910   -17.3530    -7.5150 h1         1 B7R       0.083700
     48 H15        -42.4650   -18.3380    -3.2640 h1         1 B7R       0.033700
     49 H16        -42.4960   -19.9560    -3.9870 h1         1 B7R       0.033700
     50 H17        -41.7980   -18.5950    -4.8910 h1         1 B7R       0.033700
     51 H18        -48.3930   -17.7810    -5.4670 h4         1 B7R       0.157000
     52 H19        -60.8000   -16.4300   -12.2570 h5         1 B7R       0.056100
     53 H20        -45.6540   -15.8340    -5.6430 hc         1 B7R       0.060200
     54 H21        -46.2460   -17.1760    -4.6580 hc         1 B7R       0.060200
     55 H22        -45.7250   -19.7460    -7.4000 hc         1 B7R       0.060200
     56 H23        -46.2990   -19.5660    -5.7380 hc         1 B7R       0.060200
     57 H24        -50.3690   -18.4470   -11.1770 hc         1 B7R       0.048700
     58 H25        -51.1910   -18.6270   -12.7370 hc         1 B7R       0.048700
     59 H26        -49.5890   -17.8770   -12.6590 hc         1 B7R       0.048700
     60 H29        -53.3180   -16.5720   -11.8640 hn         1 B7R       0.542000
     61 N33        -50.7320   -17.2970    -7.0900 nu         1 B7R      -0.892900
     62 C24        -42.6020   -18.8900    -4.1960 c3         1 B7R       0.151100
     63 H28        -50.9600   -17.4440    -6.1190 hn         1 B7R       0.514000
@<TRIPOS>BOND
     1     1     4 ar  
     2     1    18 ar  
     3     1    34 1   
     4     2     4 ar  
     5     2    19 ar  
     6     2    35 1   
     7     3     5 1   
     8     3    27 2   
     9     3    36 1   
    10     4    30 1   
    11     5    21 2   
    12     5    61 1   
    13     6     9 1   
    14     6    23 ar  
    15     6    28 ar  
    16     7    20 ar  
    17     7    23 ar  
    18     7    32 1   
    19     8    20 ar  
    20     8    28 ar  
    21     8    61 1   
    22     9    10 2   
    23     9    37 1   
    24    10    30 1   
    25    10    38 1   
    26    11    23 1   
    27    11    30 1   
    28    11    33 2   
    29    12    13 1   
    30    12    17 1   
    31    12    39 1   
    32    12    40 1   
    33    13    17 1   
    34    13    41 1   
    35    13    42 1   
    36    14    24 1   
    37    14    31 1   
    38    14    43 1   
    39    14    44 1   
    40    15    25 1   
    41    15    31 1   
    42    15    45 1   
    43    15    46 1   
    44    16    24 1   
    45    16    25 1   
    46    16    29 1   
    47    16    47 1   
    48    17    26 1   
    49    17    32 1   
    50    18    22 ar  
    51    19    22 ar  
    52    21    29 1   
    53    21    51 1   
    54    22    52 1   
    55    24    53 1   
    56    24    54 1   
    57    25    55 1   
    58    25    56 1   
    59    26    57 1   
    60    26    58 1   
    61    26    59 1   
    62    27    29 1   
    63    31    62 1   
    64    32    60 1   
    65    48    62 1   
    66    49    62 1   
    67    50    62 1   
    68    61    63 1   
@<TRIPOS>SUBSTRUCTURE
     1 B7R         1 TEMP              0 ****  ****    0 ROOT
