@<TRIPOS>MOLECULE
B7R
   63    68     1     0     0
SMALL
No Charge or Current Charge


@<TRIPOS>ATOM
      1 C1         -58.7220   -17.6000   -10.1940 ca         1 B7R       0.117900
      2 C2         -58.0080   -15.3950   -10.8370 ca         1 B7R       0.117900
      3 C3         -48.5980   -17.6120    -8.7970 cc         1 B7R       0.252900
      4 C7         -57.7000   -16.6260   -10.2200 ca         1 B7R      -0.071400
      5 C8         -49.2730   -17.7580    -7.5570 cc         1 B7R       0.181000
      6 C9         -54.0220   -17.3480    -8.2600 ca         1 B7R       0.294800
      7 C10        -52.6380   -16.8990   -10.1500 ca         1 B7R       0.473900
      8 C11        -51.7500   -17.4890    -8.1410 ca         1 B7R       0.451900
      9 C12        -55.3090   -17.4580    -7.5950 cc         1 B7R      -0.377800
     10 C13        -56.4540   -17.2140    -8.3240 cd         1 B7R      -0.020400
     11 C14        -55.1780   -16.7230   -10.3790 c          1 B7R       0.607600
     12 C15        -50.2160   -15.3420   -11.7640 cx         1 B7R      -0.127900
     13 C16        -51.0130   -15.1800   -13.0380 cx         1 B7R      -0.127900
     14 C19        -44.0690   -16.9610    -5.1060 c6         1 B7R       0.164300
     15 C20        -44.1270   -19.4060    -5.4260 c6         1 B7R       0.164300
     16 C21        -45.7440   -17.9500    -6.7450 c6         1 B7R       0.097300
     17 C22        -51.1960   -16.4090   -12.1840 cx         1 B7R       0.186200
     18 N25        -59.9410   -17.3630   -10.7190 nb         1 B7R      -0.162500
     19 N26        -59.2260   -15.1510   -11.3640 nb         1 B7R      -0.162500
     20 N29        -51.5470   -17.1500    -9.4160 nb         1 B7R      -0.329000
     21 C4         -48.3020   -17.9050    -6.6210 cd         1 B7R      -0.217000
     22 C5         -60.1320   -16.1480   -11.2770 ca         1 B7R       0.115900
     23 C6         -53.9270   -16.9870    -9.6080 ca         1 B7R      -0.401600
     24 C17        -45.4720   -16.8090    -5.7340 c6         1 B7R      -0.089900
     25 C18        -45.5330   -19.3250    -6.0640 c6         1 B7R      -0.089900
     26 C23        -50.7530   -17.7860   -12.6670 c3         1 B7R      -0.072100
     27 N27        -47.2810   -17.6570    -8.7020 nd         1 B7R      -0.524800
     28 N28        -52.9290   -17.6000    -7.5210 nb         1 B7R      -0.303000
     29 N30        -47.0980   -17.8400    -7.3380 na         1 B7R       0.129800
     30 N31        -56.3890   -16.8790    -9.6770 n          1 B7R      -0.209200
     31 N32        -43.9050   -18.2930    -4.4620 n3         1 B7R      -0.720600
     32 N34        -52.4350   -16.5490   -11.4740 nu         1 B7R      -0.891100
     33 O35        -55.1620   -16.3970   -11.5620 o          1 B7R      -0.591000
     34 H1         -58.5620   -18.5830    -9.7520 h4         1 B7R       0.038100
     35 H2         -57.2750   -14.5930   -10.9060 h4         1 B7R       0.038100
     36 H3         -49.0310   -17.4770    -9.7770 h4         1 B7R       0.064100
     37 H4         -55.3750   -17.7170    -6.5410 ha         1 B7R       0.217000
     38 H5         -57.4570   -17.2510    -7.9020 h4         1 B7R       0.205000
     39 H6         -49.1560   -15.5650   -11.8520 hc         1 B7R       0.080450
     40 H7         -50.4800   -14.7130   -10.9170 hc         1 B7R       0.080450
     41 H8         -50.4850   -15.2910   -13.9820 hc         1 B7R       0.080450
     42 H9         -51.8080   -14.4380   -13.0460 hc         1 B7R       0.080450
     43 H10        -43.9260   -16.1600    -4.3650 h1         1 B7R       0.037200
     44 H11        -43.3060   -16.8190    -5.8870 h1         1 B7R       0.037200
     45 H12        -44.0270   -20.3770    -4.9180 h1         1 B7R       0.037200
     46 H13        -43.3680   -19.3780    -6.2220 h1         1 B7R       0.037200
     47 H14        -45.0130   -17.8610    -7.5620 h1         1 B7R       0.083700
     48 H15        -42.5070   -17.6230    -2.9990 h1         1 B7R       0.033700
     49 H16        -42.5500   -19.3830    -3.2300 h1         1 B7R       0.033700
     50 H17        -41.7710   -18.3460    -4.4500 h1         1 B7R       0.033700
     51 H18        -48.3560   -18.0440    -5.5500 h4         1 B7R       0.157000
     52 H19        -61.1150   -15.9530   -11.7010 h5         1 B7R       0.056100
     53 H20        -45.5500   -15.8350    -6.2350 hc         1 B7R       0.060200
     54 H21        -46.2280   -16.8160    -4.9370 hc         1 B7R       0.060200
     55 H22        -45.6530   -20.1320    -6.7980 hc         1 B7R       0.060200
     56 H23        -46.2920   -19.4870    -5.2870 hc         1 B7R       0.060200
     57 H24        -50.5810   -18.4670   -11.8260 hc         1 B7R       0.048700
     58 H25        -51.5090   -18.2360   -13.3210 hc         1 B7R       0.048700
     59 H26        -49.8180   -17.7210   -13.2350 hc         1 B7R       0.048700
     60 H29        -53.3270   -16.3790   -11.9530 hn         1 B7R       0.542000
     61 N33        -50.6460   -17.7510    -7.3440 nu         1 B7R      -0.892900
     62 C24        -42.6150   -18.4180    -3.7500 c3         1 B7R       0.151100
     63 H28        -50.9100   -17.9470    -6.3780 hn         1 B7R       0.514000
@<TRIPOS>BOND
     1     1     4 ar  
     2     1    18 ar  
     3     1    34 1   
     4     2     4 ar  
     5     2    19 ar  
     6     2    35 1   
     7     3     5 1   
     8     3    27 2   
     9     3    36 1   
    10     4    30 1   
    11     5    21 2   
    12     5    61 1   
    13     6     9 1   
    14     6    23 ar  
    15     6    28 ar  
    16     7    20 ar  
    17     7    23 ar  
    18     7    32 1   
    19     8    20 ar  
    20     8    28 ar  
    21     8    61 1   
    22     9    10 2   
    23     9    37 1   
    24    10    30 1   
    25    10    38 1   
    26    11    23 1   
    27    11    30 1   
    28    11    33 2   
    29    12    13 1   
    30    12    17 1   
    31    12    39 1   
    32    12    40 1   
    33    13    17 1   
    34    13    41 1   
    35    13    42 1   
    36    14    24 1   
    37    14    31 1   
    38    14    43 1   
    39    14    44 1   
    40    15    25 1   
    41    15    31 1   
    42    15    45 1   
    43    15    46 1   
    44    16    24 1   
    45    16    25 1   
    46    16    29 1   
    47    16    47 1   
    48    17    26 1   
    49    17    32 1   
    50    18    22 ar  
    51    19    22 ar  
    52    21    29 1   
    53    21    51 1   
    54    22    52 1   
    55    24    53 1   
    56    24    54 1   
    57    25    55 1   
    58    25    56 1   
    59    26    57 1   
    60    26    58 1   
    61    26    59 1   
    62    27    29 1   
    63    31    62 1   
    64    32    60 1   
    65    48    62 1   
    66    49    62 1   
    67    50    62 1   
    68    61    63 1   
@<TRIPOS>SUBSTRUCTURE
     1 B7R         1 TEMP              0 ****  ****    0 ROOT
