@<TRIPOS>MOLECULE
B7S
   19    20     1     0     0
SMALL
bcc


@<TRIPOS>ATOM
      1 C10          1.7780     0.6540     0.0730 c          1 B7S       0.613900
      2 C01          2.6320    -0.5110     0.0490 cc         1 B7S      -0.329200
      3 C02          2.0940    -1.7380     0.0440 cd         1 B7S       0.096100
      4 C04         -0.0970    -0.9560     0.0840 ca         1 B7S       0.234100
      5 C05         -1.4400    -1.2820     0.0980 ca         1 B7S      -0.317000
      6 C06         -2.3620    -0.2380     0.1210 ca         1 B7S       0.243100
      7 C07         -1.9530     1.0970     0.1300 ca         1 B7S      -0.263000
      8 C08         -0.6050     1.4020     0.1150 ca         1 B7S       0.282100
      9 C09          0.3610     0.3650     0.0910 ca         1 B7S      -0.381600
     10 O03          0.7820    -1.9820     0.0620 os         1 B7S      -0.209200
     11 O11          2.2160     1.8130     0.0800 o          1 B7S      -0.591100
     12 O12         -0.2230     2.6740     0.1220 oh         1 B7S      -0.497100
     13 O13         -3.6790    -0.4640     0.1340 oh         1 B7S      -0.479100
     14 H011         3.7080    -0.4030     0.0330 ha         1 B7S       0.169000
     15 H021         2.6730    -2.6510     0.0270 h4         1 B7S       0.181000
     16 H051        -1.7540    -2.3180     0.0910 ha         1 B7S       0.155000
     17 H071        -2.6910     1.8900     0.1480 ha         1 B7S       0.171000
     18 H121         0.7660     2.6880     0.1090 ho         1 B7S       0.486000
     19 H131        -3.8670    -1.4100     0.1200 ho         1 B7S       0.436000
@<TRIPOS>BOND
     1     1     2 1   
     2     1     9 1   
     3     1    11 2   
     4     2     3 2   
     5     2    14 1   
     6     3    10 1   
     7     3    15 1   
     8     4     5 ar  
     9     4     9 ar  
    10     4    10 1   
    11     5     6 ar  
    12     5    16 1   
    13     6     7 ar  
    14     6    13 1   
    15     7     8 ar  
    16     7    17 1   
    17     8     9 ar  
    18     8    12 1   
    19    12    18 1   
    20    13    19 1   
@<TRIPOS>SUBSTRUCTURE
     1 B7S         1 TEMP              0 ****  ****    0 ROOT
