@<TRIPOS>MOLECULE
B7S
   19    20     1     0     0
SMALL
No Charge or Current Charge


@<TRIPOS>ATOM
      1 C10          1.7990     0.6520     0.0740 c          1 B7S       0.613900
      2 C01          2.6540    -0.5290     0.0500 cc         1 B7S      -0.379200
      3 C02          2.1580    -1.8150     0.0420 cd         1 B7S       0.046100
      4 C04         -0.1000    -0.9490     0.0820 ca         1 B7S       0.234100
      5 C05         -1.4690    -1.2470     0.0970 ca         1 B7S      -0.299000
      6 C06         -2.4070    -0.2110     0.1210 ca         1 B7S       0.243100
      7 C07         -1.9810     1.1190     0.1290 ca         1 B7S      -0.245000
      8 C08         -0.6160     1.4160     0.1140 ca         1 B7S       0.282100
      9 C09          0.3360     0.3840     0.0900 ca         1 B7S      -0.381600
     10 O03          0.7990    -1.9900     0.0590 os         1 B7S      -0.209200
     11 O11          2.2470     1.7910     0.0800 o          1 B7S      -0.591100
     12 O12         -0.2240     2.7140     0.1230 oh         1 B7S      -0.536100
     13 O13         -3.7360    -0.4930     0.1350 oh         1 B7S      -0.518100
     14 H011         3.7190    -0.3290     0.0370 ha         1 B7S       0.219000
     15 H021         2.7300    -2.7410     0.0250 h4         1 B7S       0.231000
     16 H051        -1.7880    -2.2850     0.0900 ha         1 B7S       0.137000
     17 H071        -2.7110     1.9220     0.1480 ha         1 B7S       0.153000
     18 H121         0.7670     2.6870     0.1090 ho         1 B7S       0.525000
     19 H131        -3.8370    -1.4680     0.1260 ho         1 B7S       0.475000
@<TRIPOS>BOND
     1     1     2 1   
     2     1     9 1   
     3     1    11 2   
     4     2     3 2   
     5     2    14 1   
     6     3    10 1   
     7     3    15 1   
     8     4     5 ar  
     9     4     9 ar  
    10     4    10 1   
    11     5     6 ar  
    12     5    16 1   
    13     6     7 ar  
    14     6    13 1   
    15     7     8 ar  
    16     7    17 1   
    17     8     9 ar  
    18     8    12 1   
    19    12    18 1   
    20    13    19 1   
@<TRIPOS>SUBSTRUCTURE
     1 B7S         1 TEMP              0 ****  ****    0 ROOT
