@<TRIPOS>MOLECULE
B7T
   55    59     1     0     0
SMALL
abcg2


@<TRIPOS>ATOM
      1 C1           2.1080     2.0560     0.3010 ca         1 B7T      -0.095000
      2 C2           0.8160     2.3540     0.7170 ca         1 B7T      -0.101000
      3 C3           1.5040    -0.2530    -0.0300 ca         1 B7T      -0.065000
      4 C7           2.4680     0.7590    -0.0770 cp         1 B7T      -0.043000
      5 C8           3.8420     0.4640    -0.5230 cp         1 B7T      -0.079000
      6 C9          -0.1290     1.3430     0.7580 ca         1 B7T      -0.076300
      7 C10          0.2230     0.0520     0.3860 ca         1 B7T      -0.081300
      8 C11          6.2340     0.7510    -0.3690 ca         1 B7T      -0.127300
      9 C12         -1.2610    -3.0300     0.3140 c2         1 B7T       0.785500
     10 C13         -1.5790     1.3910     1.1430 c5         1 B7T      -0.031100
     11 C14         -4.6130     0.5500     0.9590 c6         1 B7T      -0.089400
     12 C15         -3.6560     1.3270    -1.2090 c6         1 B7T      -0.089400
     13 C16         -3.4300    -0.3960     1.1490 c6         1 B7T      -0.063900
     14 C19         -4.8990     0.7820    -0.5150 c6         1 B7T       0.169300
     15 C20         -0.9460    -0.8790     0.5720 c5         1 B7T       0.173500
     16 C21         -2.1550     0.1190     0.4820 c5         1 B7T      -0.034000
     17 C22          7.4500     1.3390     0.2790 c3         1 B7T      -0.042800
     18 N25         -1.0190    -1.9780    -0.3670 n2         1 B7T      -0.715900
     19 N26         -1.5510    -4.2550    -0.1670 nv         1 B7T      -1.016200
     20 O28         -6.0120     1.6460    -0.6100 os         1 B7T      -0.459000
     21 C4           4.9520     1.0500     0.0780 ca         1 B7T      -0.071000
     22 C5           4.0840    -0.4180    -1.5760 ca         1 B7T       0.340900
     23 C6           6.3380    -0.1440    -1.4290 ca         1 B7T       0.333900
     24 C17         -2.4670     0.3920    -1.0000 c6         1 B7T      -0.063900
     25 C18         -0.8120    -1.6090     1.9350 c5         1 B7T       0.127600
     26 C23         -6.5830     1.7210    -1.8910 c3         1 B7T       0.149900
     27 N24          5.2960    -0.7150    -2.0190 nb         1 B7T      -0.663000
     28 O27         -1.2920    -2.9260     1.6550 os         1 B7T      -0.466600
     29 H1           2.8410     2.8520     0.2440 ha         1 B7T       0.114000
     30 H2           0.5560     3.3700     0.9880 ha         1 B7T       0.117000
     31 H3           1.7620    -1.2700    -0.3010 ha         1 B7T       0.125000
     32 H4          -1.6880     1.3470     2.2340 hc         1 B7T       0.057700
     33 H5          -2.0690     2.3110     0.8240 hc         1 B7T       0.057700
     34 H7          -4.4050     1.5100     1.4450 hc         1 B7T       0.047950
     35 H8          -3.8260     1.4340    -2.2830 hc         1 B7T       0.047950
     36 H9          -3.4450     2.3320    -0.8290 hc         1 B7T       0.047950
     37 H10         -3.2790    -0.5480     2.2200 hc         1 B7T       0.052950
     38 H11         -3.6850    -1.3730     0.7230 hc         1 B7T       0.052950
     39 H12         -5.1500    -0.1900    -0.9740 h1         1 B7T       0.032700
     40 H13          7.6990     0.8060     1.1980 hc         1 B7T       0.044700
     41 H14          8.3180     1.2810    -0.3770 hc         1 B7T       0.044700
     42 H15          7.2950     2.3840     0.5420 hc         1 B7T       0.044700
     43 H16         -1.3920    -4.3960    -1.1500 hn         1 B7T       0.488000
     44 H17         -1.3510    -5.0530     0.4130 hn         1 B7T       0.488000
     45 H18          4.8220     1.7330     0.9100 ha         1 B7T       0.118000
     46 H19          3.2530    -0.8850    -2.0950 h4         1 B7T       0.024100
     47 H20          7.3180    -0.4050    -1.8190 h4         1 B7T       0.017100
     48 H21         -2.6870    -0.5630    -1.4840 hc         1 B7T       0.052950
     49 H22         -1.5890     0.7960    -1.5100 hc         1 B7T       0.052950
     50 H23          0.2330    -1.6760     2.2480 h1         1 B7T       0.068700
     51 H24         -1.3880    -1.1820     2.7530 h1         1 B7T       0.068700
     52 H25         -5.9400     2.2250    -2.6200 h1         1 B7T       0.026367
     53 H26         -6.8290     0.7290    -2.2900 h1         1 B7T       0.026367
     54 H27         -7.5080     2.2920    -1.8090 h1         1 B7T       0.026367
     55 H6          -5.4970     0.1320     1.4480 hc         1 B7T       0.047950
@<TRIPOS>BOND
     1     1     2 ar  
     2     1     4 ar  
     3     1    29 1   
     4     2     6 ar  
     5     2    30 1   
     6     3     4 ar  
     7     3     7 ar  
     8     3    31 1   
     9     4     5 1   
    10     5    21 ar  
    11     5    22 ar  
    12     6     7 ar  
    13     6    10 1   
    14     7    15 1   
    15     8    17 1   
    16     8    21 ar  
    17     8    23 ar  
    18     9    18 2   
    19     9    19 1   
    20     9    28 1   
    21    10    16 1   
    22    10    32 1   
    23    10    33 1   
    24    11    13 1   
    25    11    14 1   
    26    11    34 1   
    27    11    55 1   
    28    12    14 1   
    29    12    24 1   
    30    12    35 1   
    31    12    36 1   
    32    13    16 1   
    33    13    37 1   
    34    13    38 1   
    35    14    20 1   
    36    14    39 1   
    37    15    16 1   
    38    15    18 1   
    39    15    25 1   
    40    16    24 1   
    41    17    40 1   
    42    17    41 1   
    43    17    42 1   
    44    19    43 1   
    45    19    44 1   
    46    20    26 1   
    47    21    45 1   
    48    22    27 ar  
    49    22    46 1   
    50    23    27 ar  
    51    23    47 1   
    52    24    48 1   
    53    24    49 1   
    54    25    28 1   
    55    25    50 1   
    56    25    51 1   
    57    26    52 1   
    58    26    53 1   
    59    26    54 1   
@<TRIPOS>SUBSTRUCTURE
     1 B7T         1 TEMP              0 ****  ****    0 ROOT
