@<TRIPOS>MOLECULE
B7T
   55    59     1     0     0
SMALL
No Charge or Current Charge


@<TRIPOS>ATOM
      1 C1           2.1040     2.0070     0.3400 ca         1 B7T      -0.095000
      2 C2           0.7850     2.2700     0.7570 ca         1 B7T      -0.101000
      3 C3           1.5360    -0.3360    -0.0260 ca         1 B7T      -0.065000
      4 C7           2.5080     0.7000    -0.0600 cp         1 B7T      -0.043000
      5 C8           3.9120     0.4260    -0.5040 cp         1 B7T      -0.079000
      6 C9          -0.1420     1.2200     0.7740 ca         1 B7T      -0.076300
      7 C10          0.2260    -0.0520     0.3910 ca         1 B7T      -0.081300
      8 C11          6.3140     0.8410    -0.4130 ca         1 B7T      -0.127300
      9 C12         -1.3330    -3.1220     0.3590 c2         1 B7T       0.785500
     10 C13         -1.5970     1.2910     1.1810 c5         1 B7T      -0.031100
     11 C14         -4.6930     0.4820     0.9420 c6         1 B7T      -0.089400
     12 C15         -3.7180     1.3340    -1.2440 c6         1 B7T      -0.089400
     13 C16         -3.5170    -0.5210     1.0730 c6         1 B7T      -0.063900
     14 C19         -4.9970     0.8150    -0.5360 c6         1 B7T       0.169300
     15 C20         -0.9340    -1.0040     0.5220 c5         1 B7T       0.173500
     16 C21         -2.1860     0.0100     0.4350 c5         1 B7T      -0.034000
     17 C22          7.5140     1.5820     0.1590 c3         1 B7T      -0.042800
     18 N25         -1.0410    -2.1540    -0.4080 n2         1 B7T      -0.715900
     19 N26         -1.5530    -4.3850    -0.0130 nv         1 B7T      -1.016200
     20 O28         -6.0730     1.7760    -0.5920 os         1 B7T      -0.459000
     21 C4           5.0140     1.1330     0.0370 ca         1 B7T      -0.071000
     22 C5           4.2010    -0.5580    -1.4870 ca         1 B7T       0.340900
     23 C6           6.4800    -0.1570    -1.3930 ca         1 B7T       0.333900
     24 C17         -2.5320     0.3480    -1.0660 c6         1 B7T      -0.063900
     25 C18         -0.8060    -1.6690     1.9250 c5         1 B7T       0.127600
     26 C23         -6.6150     2.0920    -1.8880 c3         1 B7T       0.149900
     27 N24          5.4490    -0.8490    -1.9280 nb         1 B7T      -0.663000
     28 O27         -1.4020    -2.9590     1.7010 os         1 B7T      -0.466600
     29 H1           2.8160     2.8280     0.3130 ha         1 B7T       0.114000
     30 H2           0.4900     3.2730     1.0560 ha         1 B7T       0.117000
     31 H3           1.7970    -1.3530    -0.3070 ha         1 B7T       0.125000
     32 H4          -1.7020     1.2130     2.2690 hc         1 B7T       0.057700
     33 H5          -2.0720     2.2320     0.8880 hc         1 B7T       0.057700
     34 H7          -4.4630     1.4040     1.4940 hc         1 B7T       0.047950
     35 H8          -3.9080     1.4540    -2.3190 hc         1 B7T       0.047950
     36 H9          -3.4570     2.3300    -0.8670 hc         1 B7T       0.047950
     37 H10         -3.3770    -0.7430     2.1380 hc         1 B7T       0.052950
     38 H11         -3.8010    -1.4720     0.6010 hc         1 B7T       0.052950
     39 H12         -5.3300    -0.1070    -1.0350 h1         1 B7T       0.032700
     40 H13          7.7740     1.1980     1.1520 hc         1 B7T       0.044700
     41 H14          8.3970     1.4760    -0.4820 hc         1 B7T       0.044700
     42 H15          7.3060     2.6540     0.2580 hc         1 B7T       0.044700
     43 H16         -1.1010    -4.5910    -0.8920 hn         1 B7T       0.488000
     44 H17         -1.3520    -5.0390     0.7310 hn         1 B7T       0.488000
     45 H18          4.8650     1.8880     0.8050 ha         1 B7T       0.118000
     46 H19          3.3970    -1.1280    -1.9500 h4         1 B7T       0.024100
     47 H20          7.4720    -0.4130    -1.7640 h4         1 B7T       0.017100
     48 H21         -2.7810    -0.5760    -1.6050 hc         1 B7T       0.052950
     49 H22         -1.6480     0.7560    -1.5740 hc         1 B7T       0.052950
     50 H23          0.2470    -1.8200     2.2000 h1         1 B7T       0.068700
     51 H24         -1.3050    -1.1360     2.7440 h1         1 B7T       0.068700
     52 H25         -5.8760     2.6100    -2.5130 h1         1 B7T       0.026367
     53 H26         -6.9370     1.1810    -2.4090 h1         1 B7T       0.026367
     54 H27         -7.4860     2.7510    -1.7840 h1         1 B7T       0.026367
     55 H6          -5.5890     0.0560     1.4120 hc         1 B7T       0.047950
@<TRIPOS>BOND
     1     1     2 ar  
     2     1     4 ar  
     3     1    29 1   
     4     2     6 ar  
     5     2    30 1   
     6     3     4 ar  
     7     3     7 ar  
     8     3    31 1   
     9     4     5 1   
    10     5    21 ar  
    11     5    22 ar  
    12     6     7 ar  
    13     6    10 1   
    14     7    15 1   
    15     8    17 1   
    16     8    21 ar  
    17     8    23 ar  
    18     9    18 2   
    19     9    19 1   
    20     9    28 1   
    21    10    16 1   
    22    10    32 1   
    23    10    33 1   
    24    11    13 1   
    25    11    14 1   
    26    11    34 1   
    27    11    55 1   
    28    12    14 1   
    29    12    24 1   
    30    12    35 1   
    31    12    36 1   
    32    13    16 1   
    33    13    37 1   
    34    13    38 1   
    35    14    20 1   
    36    14    39 1   
    37    15    16 1   
    38    15    18 1   
    39    15    25 1   
    40    16    24 1   
    41    17    40 1   
    42    17    41 1   
    43    17    42 1   
    44    19    43 1   
    45    19    44 1   
    46    20    26 1   
    47    21    45 1   
    48    22    27 ar  
    49    22    46 1   
    50    23    27 ar  
    51    23    47 1   
    52    24    48 1   
    53    24    49 1   
    54    25    28 1   
    55    25    50 1   
    56    25    51 1   
    57    26    52 1   
    58    26    53 1   
    59    26    54 1   
@<TRIPOS>SUBSTRUCTURE
     1 B7T         1 TEMP              0 ****  ****    0 ROOT
