@<TRIPOS>MOLECULE
B7U
   38    39     1     0     0
SMALL
No Charge or Current Charge


@<TRIPOS>ATOM
      1 O01          0.7020    -1.2690     1.5750 o          1 B7U      -0.594100
      2 C02          0.4870    -0.2280     0.9680 c          1 B7U       0.603100
      3 C03          1.4840     0.9510     0.9390 c3         1 B7U      -0.093400
      4 C04          1.7200     1.5270     2.3570 c3         1 B7U      -0.073100
      5 C05          2.7850     0.5530     0.2310 ca         1 B7U      -0.085300
      6 C06          3.0380     1.0100    -1.0790 ca         1 B7U      -0.101500
      7 C07          4.2230     0.6500    -1.7440 ca         1 B7U      -0.110500
      8 C08          5.1650    -0.1740    -1.1080 ca         1 B7U      -0.107000
      9 C09          4.9200    -0.6390     0.1940 ca         1 B7U      -0.110500
     10 C10          3.7350    -0.2800     0.8600 ca         1 B7U      -0.101500
     11 N11         -0.6720    -0.0280     0.2500 ns         1 B7U      -0.506900
     12 C12         -1.7470    -1.0060     0.1050 c3         1 B7U       0.165000
     13 C13         -1.3690    -2.1060    -0.9090 c3         1 B7U      -0.104100
     14 C14         -3.0500    -0.3000    -0.2640 ca         1 B7U      -0.092300
     15 C15         -4.1270    -0.2870     0.6470 ca         1 B7U      -0.095500
     16 C16         -5.3290     0.3650     0.3190 ca         1 B7U      -0.110500
     17 C17         -5.4640     1.0120    -0.9200 ca         1 B7U      -0.108000
     18 C18         -4.3950     1.0090    -1.8310 ca         1 B7U      -0.110500
     19 C19         -3.1930     0.3570    -1.5050 ca         1 B7U      -0.095500
     20 H1           1.0180     1.7580     0.3600 hc         1 B7U       0.052700
     21 H2           2.1220     0.7680     3.0380 hc         1 B7U       0.045367
     22 H3           2.4270     2.3650     2.3190 hc         1 B7U       0.045367
     23 H4           0.7780     1.8950     2.7810 hc         1 B7U       0.045367
     24 H5           2.3170     1.6480    -1.5870 ha         1 B7U       0.118000
     25 H6           4.4100     1.0100    -2.7540 ha         1 B7U       0.113000
     26 H7           6.0820    -0.4530    -1.6230 ha         1 B7U       0.113000
     27 H8           5.6460    -1.2820     0.6870 ha         1 B7U       0.113000
     28 H9           3.5570    -0.6580     1.8640 ha         1 B7U       0.118000
     29 H10         -0.7750     0.8660    -0.2130 hn         1 B7U       0.313500
     30 H11         -1.8880    -1.4930     1.0800 h1         1 B7U       0.071700
     31 H12         -1.1470    -1.6790    -1.8940 hc         1 B7U       0.044700
     32 H13         -0.4860    -2.6590    -0.5700 hc         1 B7U       0.044700
     33 H14         -2.1930    -2.8200    -1.0210 hc         1 B7U       0.044700
     34 H15         -4.0350    -0.7830     1.6100 ha         1 B7U       0.109000
     35 H16         -6.1550     0.3690     1.0270 ha         1 B7U       0.111000
     36 H17         -6.3940     1.5170    -1.1720 ha         1 B7U       0.111000
     37 H18         -4.4970     1.5120    -2.7900 ha         1 B7U       0.111000
     38 H19         -2.3730     0.3670    -2.2190 ha         1 B7U       0.109000
@<TRIPOS>BOND
     1     1     2 2   
     2     2     3 1   
     3     2    11 1   
     4     3     4 1   
     5     3     5 1   
     6     3    20 1   
     7     4    21 1   
     8     4    22 1   
     9     4    23 1   
    10     5     6 ar  
    11     5    10 ar  
    12     6     7 ar  
    13     6    24 1   
    14     7     8 ar  
    15     7    25 1   
    16     8     9 ar  
    17     8    26 1   
    18     9    10 ar  
    19     9    27 1   
    20    10    28 1   
    21    11    12 1   
    22    11    29 1   
    23    12    13 1   
    24    12    14 1   
    25    12    30 1   
    26    13    31 1   
    27    13    32 1   
    28    13    33 1   
    29    14    15 ar  
    30    14    19 ar  
    31    15    16 ar  
    32    15    34 1   
    33    16    17 ar  
    34    16    35 1   
    35    17    18 ar  
    36    17    36 1   
    37    18    19 ar  
    38    18    37 1   
    39    19    38 1   
@<TRIPOS>SUBSTRUCTURE
     1 B7U         1 TEMP              0 ****  ****    0 ROOT
