@<TRIPOS>MOLECULE
B7U
   38    39     1     0     0
SMALL
abcg2


@<TRIPOS>ATOM
      1 O01         -0.2380     0.2710     1.6070 o          1 B7U      -0.594100
      2 C02          0.1770     0.4790     0.4780 c          1 B7U       0.603100
      3 C03          1.3350     1.4280     0.1870 c3         1 B7U      -0.093400
      4 C04          1.4170     2.5420     1.2240 c3         1 B7U      -0.073100
      5 C05          2.6190     0.6290     0.1020 ca         1 B7U      -0.085300
      6 C06          3.3800     0.6410    -1.0620 ca         1 B7U      -0.101500
      7 C07          4.5660    -0.0800    -1.1450 ca         1 B7U      -0.110500
      8 C08          5.0050    -0.8250    -0.0600 ca         1 B7U      -0.107000
      9 C09          4.2500    -0.8440     1.1070 ca         1 B7U      -0.110500
     10 C10          3.0670    -0.1230     1.1880 ca         1 B7U      -0.101500
     11 N11         -0.3240    -0.1400    -0.6040 ns         1 B7U      -0.506900
     12 C12         -1.3960    -1.1110    -0.5300 c3         1 B7U       0.165000
     13 C13         -1.4810    -1.8590    -1.8560 c3         1 B7U      -0.104100
     14 C14         -2.7270    -0.4770    -0.1860 ca         1 B7U      -0.092300
     15 C15         -3.6100    -1.1410     0.6580 ca         1 B7U      -0.095500
     16 C16         -4.8620    -0.6090     0.9390 ca         1 B7U      -0.110500
     17 C17         -5.2450     0.6020     0.3770 ca         1 B7U      -0.108000
     18 C18         -4.3670     1.2730    -0.4650 ca         1 B7U      -0.110500
     19 C19         -3.1180     0.7360    -0.7450 ca         1 B7U      -0.095500
     20 H1           1.1630     1.8820    -0.7930 hc         1 B7U       0.052700
     21 H2           1.5780     2.1510     2.2270 hc         1 B7U       0.045367
     22 H3           2.2430     3.2120     0.9870 hc         1 B7U       0.045367
     23 H4           0.5010     3.1340     1.2350 hc         1 B7U       0.045367
     24 H5           3.0470     1.2220    -1.9150 ha         1 B7U       0.118000
     25 H6           5.1450    -0.0590    -2.0590 ha         1 B7U       0.113000
     26 H7           5.9270    -1.3870    -0.1210 ha         1 B7U       0.113000
     27 H8           4.5820    -1.4260     1.9580 ha         1 B7U       0.113000
     28 H9           2.4880    -0.1530     2.1030 ha         1 B7U       0.118000
     29 H10          0.0480     0.0910    -1.5120 hn         1 B7U       0.313500
     30 H11         -1.1540    -1.8330     0.2550 h1         1 B7U       0.071700
     31 H12         -1.7030    -1.1760    -2.6790 hc         1 B7U       0.044700
     32 H13         -0.5430    -2.3700    -2.0750 hc         1 B7U       0.044700
     33 H14         -2.2730    -2.6050    -1.8170 hc         1 B7U       0.044700
     34 H15         -3.3170    -2.0850     1.1050 ha         1 B7U       0.109000
     35 H16         -5.5350    -1.1370     1.6030 ha         1 B7U       0.111000
     36 H17         -6.2180     1.0210     0.5970 ha         1 B7U       0.111000
     37 H18         -4.6550     2.2190    -0.9050 ha         1 B7U       0.111000
     38 H19         -2.4420     1.2730    -1.3990 ha         1 B7U       0.109000
@<TRIPOS>BOND
     1     1     2 2   
     2     2     3 1   
     3     2    11 1   
     4     3     4 1   
     5     3     5 1   
     6     3    20 1   
     7     4    21 1   
     8     4    22 1   
     9     4    23 1   
    10     5     6 ar  
    11     5    10 ar  
    12     6     7 ar  
    13     6    24 1   
    14     7     8 ar  
    15     7    25 1   
    16     8     9 ar  
    17     8    26 1   
    18     9    10 ar  
    19     9    27 1   
    20    10    28 1   
    21    11    12 1   
    22    11    29 1   
    23    12    13 1   
    24    12    14 1   
    25    12    30 1   
    26    13    31 1   
    27    13    32 1   
    28    13    33 1   
    29    14    15 ar  
    30    14    19 ar  
    31    15    16 ar  
    32    15    34 1   
    33    16    17 ar  
    34    16    35 1   
    35    17    18 ar  
    36    17    36 1   
    37    18    19 ar  
    38    18    37 1   
    39    19    38 1   
@<TRIPOS>SUBSTRUCTURE
     1 B7U         1 TEMP              0 ****  ****    0 ROOT
