@<TRIPOS>MOLECULE
B7V
   44    46     1     0     0
SMALL
abcg2


@<TRIPOS>ATOM
      1 C1           1.1770     3.4790     0.5140 c          1 B7V       0.665700
      2 C2           2.6310     1.4070     0.0180 cc         1 B7V      -0.106000
      3 C3           3.2450    -0.9640    -0.4710 c6         1 B7V       0.059300
      4 C7           3.9360    -1.3800     0.8380 c6         1 B7V      -0.013600
      5 C8           2.9530    -1.7790     1.8380 c1         1 B7V       0.289900
      6 C9           0.4500     1.0680    -0.0210 cd         1 B7V       0.577900
      7 C10         -1.9400     0.3880    -0.0280 ca         1 B7V       0.368000
      8 C11         -3.2300     0.9220     0.1120 ca         1 B7V      -0.262000
      9 C12         -4.3540     0.1130     0.0580 ca         1 B7V       0.182100
     10 C13         -5.8280     1.9380     0.3910 c3         1 B7V       0.146900
     11 C14         -4.1850    -1.2630    -0.1420 ca         1 B7V       0.042000
     12 C15         -2.9190    -1.7910    -0.2810 ca         1 B7V      -0.038000
     13 C16         -1.7890    -0.9840    -0.2290 ca         1 B7V      -0.186000
     14 CL          -5.5800    -2.2870    -0.2130 cl         1 B7V      -0.194000
     15 O2          -5.6120     0.5540     0.1850 os         1 B7V      -0.325100
     16 N4          -0.8960     1.2850     0.0510 nu         1 B7V      -0.929900
     17 C            1.4360     2.0760     0.1910 cd         1 B7V      -0.325600
     18 N            2.2400     4.2700     0.7150 nt         1 B7V      -0.600000
     19 O            0.0210     3.8990     0.5990 o          1 B7V      -0.641100
     20 N3           1.0090    -0.0910    -0.2970 nc         1 B7V      -0.577800
     21 N1           2.3360     0.1390    -0.2700 na         1 B7V       0.138800
     22 N2           2.1820    -2.0990     2.6280 n1         1 B7V      -0.423000
     23 C6           4.9410    -2.5050     0.5560 c6         1 B7V      -0.107400
     24 C5           5.8750    -2.0750    -0.5610 c6         1 B7V       0.146600
     25 O1           5.1600    -1.7240    -1.7270 os         1 B7V      -0.430000
     26 C4           4.3060    -0.6320    -1.5240 c6         1 B7V       0.144600
     27 H1           3.6500     1.7560     0.0880 h4         1 B7V       0.148000
     28 H2           2.6380    -1.7930    -0.8370 h1         1 B7V       0.115700
     29 H3           4.4760    -0.5190     1.2480 hc         1 B7V       0.073700
     30 H4          -3.3370     1.9890     0.2650 ha         1 B7V       0.123000
     31 H5          -5.4640     2.5350    -0.4490 h1         1 B7V       0.043033
     32 H6          -6.9030     2.0710     0.4780 h1         1 B7V       0.043033
     33 H7          -5.3520     2.2900     1.3090 h1         1 B7V       0.043033
     34 H8          -2.8000    -2.8550    -0.4340 ha         1 B7V       0.126000
     35 H9          -0.8140    -1.4280    -0.3420 ha         1 B7V       0.147000
     36 H10         -1.1260     2.2500     0.2450 hn         1 B7V       0.536000
     37 H11          3.1880     3.9440     0.6470 hn         1 B7V       0.314000
     38 H12          2.1060     5.2460     0.9200 hn         1 B7V       0.314000
     39 H13          5.5170    -2.7230     1.4550 hc         1 B7V       0.070700
     40 H14          4.4070    -3.4150     0.2730 hc         1 B7V       0.070700
     41 H15          6.4970    -1.2350    -0.2230 h1         1 B7V       0.056200
     42 H16          6.5410    -2.8950    -0.8300 h1         1 B7V       0.056200
     43 H17          3.8160    -0.4090    -2.4720 h1         1 B7V       0.058700
     44 H18          4.8760     0.2590    -1.2220 h1         1 B7V       0.058700
@<TRIPOS>BOND
     1     1    17 1   
     2     1    18 1   
     3     1    19 2   
     4     2    17 2   
     5     2    21 1   
     6     2    27 1   
     7     3     4 1   
     8     3    21 1   
     9     3    26 1   
    10     3    28 1   
    11     4     5 1   
    12     4    23 1   
    13     4    29 1   
    14     5    22 3   
    15     6    16 1   
    16     6    17 1   
    17     6    20 2   
    18     7     8 ar  
    19     7    13 ar  
    20     7    16 1   
    21     8     9 ar  
    22     8    30 1   
    23     9    11 ar  
    24     9    15 1   
    25    10    15 1   
    26    10    31 1   
    27    10    32 1   
    28    10    33 1   
    29    11    12 ar  
    30    11    14 1   
    31    12    13 ar  
    32    12    34 1   
    33    13    35 1   
    34    16    36 1   
    35    18    37 1   
    36    18    38 1   
    37    20    21 1   
    38    23    24 1   
    39    23    39 1   
    40    23    40 1   
    41    24    25 1   
    42    24    41 1   
    43    24    42 1   
    44    25    26 1   
    45    26    43 1   
    46    26    44 1   
@<TRIPOS>SUBSTRUCTURE
     1 B7V         1 TEMP              0 ****  ****    0 ROOT
