@<TRIPOS>MOLECULE
B7V
   44    46     1     0     0
SMALL
No Charge or Current Charge


@<TRIPOS>ATOM
      1 C1           1.0430     3.2570     0.7290 c          1 B7V       0.665700
      2 C2           2.5760     1.2980     0.2150 cc         1 B7V      -0.106000
      3 C3           3.3170    -1.0700    -0.3940 c6         1 B7V       0.059300
      4 C7           4.2370    -1.3440     0.8390 c6         1 B7V      -0.013600
      5 C8           3.4660    -1.8340     2.0040 c1         1 B7V       0.289900
      6 C9           0.4110     0.8440     0.1470 cd         1 B7V       0.577900
      7 C10         -2.0730     0.2740     0.0770 ca         1 B7V       0.368000
      8 C11         -3.2990     0.9530     0.0630 ca         1 B7V      -0.262000
      9 C12         -4.5130     0.2430    -0.0680 ca         1 B7V       0.182100
     10 C13         -5.8660     2.3140     0.0200 c3         1 B7V       0.146900
     11 C14         -4.4860    -1.1620    -0.1820 ca         1 B7V       0.042000
     12 C15         -3.2600    -1.8450    -0.1610 ca         1 B7V      -0.038000
     13 C16         -2.0590    -1.1290    -0.0300 ca         1 B7V      -0.186000
     14 Cl          -5.9800    -2.0880    -0.3470 cl         1 B7V      -0.194000
     15 O2          -5.7390     0.8850    -0.0890 os         1 B7V      -0.325100
     16 N4          -0.9250     1.0480     0.2150 nu         1 B7V      -0.929900
     17 C            1.3350     1.8610     0.3800 cd         1 B7V      -0.325600
     18 N            2.1110     4.0530     0.9120 nt         1 B7V      -0.600000
     19 O           -0.0870     3.6990     0.8510 o          1 B7V      -0.641100
     20 N3           0.9440    -0.3060    -0.1630 nc         1 B7V      -0.577800
     21 N1           2.2960    -0.0310    -0.1170 na         1 B7V       0.138800
     22 N2           2.8870    -2.2350     2.9310 n1         1 B7V      -0.423000
     23 C6           5.3710    -2.3410     0.4580 c6         1 B7V      -0.107400
     24 C5           6.1140    -1.8710    -0.8140 c6         1 B7V       0.146600
     25 O1           5.1700    -1.6890    -1.8890 os         1 B7V      -0.430000
     26 C4           4.1700    -0.6770    -1.6290 c6         1 B7V       0.144600
     27 H1           3.5810     1.6960     0.2940 h4         1 B7V       0.148000
     28 H2           2.7870    -1.9990    -0.6460 h1         1 B7V       0.115700
     29 H3           4.7000    -0.4010     1.1610 hc         1 B7V       0.073700
     30 H4          -3.2970     2.0340     0.1520 ha         1 B7V       0.123000
     31 H5          -5.3440     2.8160    -0.8040 h1         1 B7V       0.043033
     32 H6          -6.9230     2.6040    -0.0190 h1         1 B7V       0.043033
     33 H7          -5.4510     2.6710     0.9710 h1         1 B7V       0.043033
     34 H8          -3.2420    -2.9290    -0.2420 ha         1 B7V       0.126000
     35 H9          -1.1280    -1.6820    -0.0040 ha         1 B7V       0.147000
     36 H10         -1.1050     2.0340     0.4140 hn         1 B7V       0.536000
     37 H11          3.0410     3.6810     0.8100 hn         1 B7V       0.314000
     38 H12          1.9660     5.0220     1.1530 hn         1 B7V       0.314000
     39 H13          6.0860    -2.4420     1.2860 hc         1 B7V       0.070700
     40 H14          4.9550    -3.3430     0.2800 hc         1 B7V       0.070700
     41 H15          6.6420    -0.9240    -0.6250 h1         1 B7V       0.056200
     42 H16          6.8590    -2.6220    -1.1140 h1         1 B7V       0.056200
     43 H17          3.5240    -0.5810    -2.5130 h1         1 B7V       0.058700
     44 H18          4.6690     0.2890    -1.4650 h1         1 B7V       0.058700
@<TRIPOS>BOND
     1     1    17 1   
     2     1    18 1   
     3     1    19 2   
     4     2    17 2   
     5     2    21 1   
     6     2    27 1   
     7     3     4 1   
     8     3    21 1   
     9     3    26 1   
    10     3    28 1   
    11     4     5 1   
    12     4    23 1   
    13     4    29 1   
    14     5    22 3   
    15     6    16 1   
    16     6    17 1   
    17     6    20 2   
    18     7     8 ar  
    19     7    13 ar  
    20     7    16 1   
    21     8     9 ar  
    22     8    30 1   
    23     9    11 ar  
    24     9    15 1   
    25    10    15 1   
    26    10    31 1   
    27    10    32 1   
    28    10    33 1   
    29    11    12 ar  
    30    11    14 1   
    31    12    13 ar  
    32    12    34 1   
    33    13    35 1   
    34    16    36 1   
    35    18    37 1   
    36    18    38 1   
    37    20    21 1   
    38    23    24 1   
    39    23    39 1   
    40    23    40 1   
    41    24    25 1   
    42    24    41 1   
    43    24    42 1   
    44    25    26 1   
    45    26    43 1   
    46    26    44 1   
@<TRIPOS>SUBSTRUCTURE
     1 B7V         1 TEMP              0 ****  ****    0 ROOT
