@<TRIPOS>MOLECULE
B7W
   36    39     1     0     0
SMALL
No Charge or Current Charge


@<TRIPOS>ATOM
      1 CAC          3.8340    -0.2080    -0.3150 ca         1 B7W      -0.171000
      2 CAB          4.9490     0.6430    -0.3460 ca         1 B7W       0.291000
      3 NAA          6.1340     0.2010    -0.8670 nv         1 B7W      -1.073000
      4 CAG          4.8480     1.9470     0.1550 ca         1 B7W      -0.176000
      5 CAF          3.6330     2.4030     0.6890 ca         1 B7W      -0.069000
      6 CAE          2.5170     1.5500     0.7180 ca         1 B7W      -0.146000
      7 CAD          2.5930     0.2260     0.2160 cp         1 B7W       0.011000
      8 CAH          1.4030    -0.6820     0.2490 cp         1 B7W      -0.115000
      9 CAP          0.0840    -0.1800     0.1040 ca         1 B7W      -0.018000
     10 CAO         -0.9740    -1.1040     0.1570 ca         1 B7W      -0.122800
     11 CAI          1.5470    -2.0900     0.4140 ca         1 B7W       0.369900
     12 NAJ          0.5120    -2.9680     0.4220 nb         1 B7W      -0.681000
     13 CAK         -0.7210    -2.4540     0.2870 ca         1 B7W       0.366500
     14 NAL         -1.9250    -3.1170     0.2050 na         1 B7W      -0.318400
     15 CAM         -2.9980    -2.2270     0.0000 cc         1 B7W      -0.135100
     16 CAN         -2.4200    -0.9660     0.0240 cd         1 B7W      -0.083400
     17 CAQ         -3.1700     0.2960    -0.1790 ca         1 B7W      -0.053800
     18 CAV         -4.4400     0.2710    -0.7950 ca         1 B7W      -0.077000
     19 CAU         -5.1380     1.4790    -0.9650 ca         1 B7W      -0.161000
     20 CAT         -4.5670     2.6740    -0.5040 ca         1 B7W       0.329900
     21 NAS         -3.3670     2.7170     0.1170 nb         1 B7W      -0.664000
     22 CAR         -2.6940     1.5510     0.2730 ca         1 B7W       0.340900
     23 H1           3.9260    -1.2110    -0.7210 ha         1 B7W       0.113000
     24 H2           6.2510    -0.7820    -1.1050 hn         1 B7W       0.447500
     25 H3           6.9760     0.7660    -0.7670 hn         1 B7W       0.447500
     26 H4           5.7090     2.6100     0.1340 ha         1 B7W       0.112000
     27 H5           3.5550     3.4150     1.0820 ha         1 B7W       0.112000
     28 H6           1.5890     1.9180     1.1490 ha         1 B7W       0.116000
     29 H7          -0.0790     0.8730    -0.0880 ha         1 B7W       0.129000
     30 H8           2.5350    -2.5310     0.5400 h4         1 B7W       0.022100
     31 H9          -2.0020    -4.1250     0.2650 hn         1 B7W       0.364000
     32 H10         -4.0300    -2.5490    -0.1100 h4         1 B7W       0.218000
     33 H11         -4.8740    -0.6560    -1.1580 ha         1 B7W       0.115000
     34 H12         -6.1110     1.4940    -1.4490 ha         1 B7W       0.122000
     35 H13         -5.0880     3.6230    -0.6230 h4         1 B7W       0.018100
     36 H14         -1.7700     1.6320     0.8380 h4         1 B7W       0.020100
@<TRIPOS>BOND
     1     1     2 ar  
     2     1     7 ar  
     3     1    23 1   
     4     2     3 1   
     5     2     4 ar  
     6     3    24 1   
     7     3    25 1   
     8     4     5 ar  
     9     4    26 1   
    10     5     6 ar  
    11     5    27 1   
    12     6     7 ar  
    13     6    28 1   
    14     7     8 1   
    15     8     9 ar  
    16     8    11 ar  
    17     9    10 ar  
    18     9    29 1   
    19    10    13 ar  
    20    10    16 1   
    21    11    12 ar  
    22    11    30 1   
    23    12    13 ar  
    24    13    14 1   
    25    14    15 1   
    26    14    31 1   
    27    15    16 2   
    28    15    32 1   
    29    16    17 1   
    30    17    18 ar  
    31    17    22 ar  
    32    18    19 ar  
    33    18    33 1   
    34    19    20 ar  
    35    19    34 1   
    36    20    21 ar  
    37    20    35 1   
    38    21    22 ar  
    39    22    36 1   
@<TRIPOS>SUBSTRUCTURE
     1 B7W         1 TEMP              0 ****  ****    0 ROOT
