@<TRIPOS>MOLECULE
B7W
   36    39     1     0     0
SMALL
abcg2


@<TRIPOS>ATOM
      1 CAC          3.7530    -0.1910    -0.4060 ca         1 B7W      -0.171000
      2 CAB          4.8960     0.6160    -0.4450 ca         1 B7W       0.291000
      3 NAA          6.0210     0.2080    -1.1280 nv         1 B7W      -1.073000
      4 CAG          4.8460     1.8720     0.1700 ca         1 B7W      -0.176000
      5 CAF          3.6870     2.2940     0.7990 ca         1 B7W      -0.069000
      6 CAE          2.5580     1.4890     0.8380 ca         1 B7W      -0.146000
      7 CAD          2.5890     0.2320     0.2310 cp         1 B7W       0.011000
      8 CAH          1.3990    -0.6410     0.2610 cp         1 B7W      -0.115000
      9 CAP          0.1200    -0.1190     0.1080 ca         1 B7W      -0.018000
     10 CAO         -0.9630    -0.9910     0.1520 ca         1 B7W      -0.122800
     11 CAI          1.5390    -2.0290     0.4520 ca         1 B7W       0.369900
     12 NAJ          0.5350    -2.8880     0.4800 nb         1 B7W      -0.681000
     13 CAK         -0.6670    -2.3620     0.3260 ca         1 B7W       0.366500
     14 NAL         -1.8430    -3.0470     0.2930 na         1 B7W      -0.318400
     15 CAM         -2.8660    -2.1700     0.1030 cc         1 B7W      -0.135100
     16 CAN         -2.3870    -0.8880     0.0090 cd         1 B7W      -0.083400
     17 CAQ         -3.1950     0.3100    -0.1980 ca         1 B7W      -0.053800
     18 CAV         -4.3530     0.2870    -0.9760 ca         1 B7W      -0.077000
     19 CAU         -5.0950     1.4460    -1.1280 ca         1 B7W      -0.161000
     20 CAT         -4.6490     2.6070    -0.5130 ca         1 B7W       0.329900
     21 NAS         -3.5490     2.6510     0.2290 nb         1 B7W      -0.664000
     22 CAR         -2.8530     1.5330     0.3820 ca         1 B7W       0.340900
     23 H1           3.7740    -1.1540    -0.9040 ha         1 B7W       0.113000
     24 H2           6.1400    -0.7870    -1.2260 hn         1 B7W       0.447500
     25 H3           6.8800     0.6610    -0.8600 hn         1 B7W       0.447500
     26 H4           5.7200     2.5130     0.1550 ha         1 B7W       0.112000
     27 H5           3.6690     3.2650     1.2780 ha         1 B7W       0.112000
     28 H6           1.6700     1.8250     1.3580 ha         1 B7W       0.116000
     29 H7          -0.0150     0.9410    -0.0660 ha         1 B7W       0.129000
     30 H8           2.5280    -2.4480     0.6020 h4         1 B7W       0.022100
     31 H9          -1.9420    -4.0430     0.4010 hn         1 B7W       0.364000
     32 H10         -3.8860    -2.5200     0.0680 h4         1 B7W       0.218000
     33 H11         -4.6620    -0.6260    -1.4690 ha         1 B7W       0.115000
     34 H12         -5.9960     1.4560    -1.7250 ha         1 B7W       0.122000
     35 H13         -5.2010     3.5330    -0.6240 h4         1 B7W       0.018100
     36 H14         -1.9770     1.6030     1.0190 h4         1 B7W       0.020100
@<TRIPOS>BOND
     1     1     2 ar  
     2     1     7 ar  
     3     1    23 1   
     4     2     3 1   
     5     2     4 ar  
     6     3    24 1   
     7     3    25 1   
     8     4     5 ar  
     9     4    26 1   
    10     5     6 ar  
    11     5    27 1   
    12     6     7 ar  
    13     6    28 1   
    14     7     8 1   
    15     8     9 ar  
    16     8    11 ar  
    17     9    10 ar  
    18     9    29 1   
    19    10    13 ar  
    20    10    16 1   
    21    11    12 ar  
    22    11    30 1   
    23    12    13 ar  
    24    13    14 1   
    25    14    15 1   
    26    14    31 1   
    27    15    16 2   
    28    15    32 1   
    29    16    17 1   
    30    17    18 ar  
    31    17    22 ar  
    32    18    19 ar  
    33    18    33 1   
    34    19    20 ar  
    35    19    34 1   
    36    20    21 ar  
    37    20    35 1   
    38    21    22 ar  
    39    22    36 1   
@<TRIPOS>SUBSTRUCTURE
     1 B7W         1 TEMP              0 ****  ****    0 ROOT
