@<TRIPOS>MOLECULE
B7Y
   45    45     1     0     0
SMALL
abcg2


@<TRIPOS>ATOM
      1 C02         -9.9000    16.2600    70.4790 c          1 B7Y       0.610700
      2 C04         -9.8730    15.8110    72.8620 c3         1 B7Y       0.061700
      3 C05         -9.8680    16.6110    74.1800 c3         1 B7Y      -0.068700
      4 C06         -9.8990    15.6950    75.4000 c3         1 B7Y      -0.091100
      5 C07         -8.6390    17.5150    74.2400 c3         1 B7Y      -0.091100
      6 C08        -10.9910    14.7780    72.8390 c          1 B7Y       0.581100
      7 C10        -13.3000    14.4640    72.5210 c3         1 B7Y       0.149900
      8 C12        -10.0000    17.2800    69.3910 ca         1 B7Y      -0.159600
      9 C13         -9.6580    18.6160    69.5760 ca         1 B7Y      -0.061000
     10 C14         -9.7630    19.5140    68.5220 ca         1 B7Y      -0.132000
     11 C15        -10.2080    19.0860    67.2850 ca         1 B7Y      -0.036000
     12 C16        -10.5430    17.7460    67.0800 ca         1 B7Y      -0.185600
     13 C17        -11.0090    17.3180    65.7260 c          1 B7Y       0.586700
     14 C18        -11.3310    15.8600    65.5120 c3         1 B7Y      -0.180400
     15 C19        -11.7650    15.5300    64.0920 c3         1 B7Y      -0.077400
     16 C20        -12.0360    14.0460    63.9680 c3         1 B7Y       0.127600
     17 C23        -10.4260    16.8520    68.1380 ca         1 B7Y      -0.024000
     18 N03         -9.9640    16.7170    71.7420 ns         1 B7Y      -0.490900
     19 O01         -9.7660    15.0700    70.2290 o          1 B7Y      -0.594100
     20 O11        -10.8350    13.6130    73.1000 o          1 B7Y      -0.468000
     21 O22        -11.1150    18.1300    64.8340 o          1 B7Y      -0.516100
     22 CL21       -12.5400    13.6260    62.2890 cl         1 B7Y      -0.286000
     23 H1          -8.9350    15.2510    72.8030 h1         1 B7Y       0.099700
     24 H2         -10.7690    17.2350    74.1970 hc         1 B7Y       0.055700
     25 H3          -9.8130    16.2910    76.3080 hc         1 B7Y       0.041867
     26 H4         -10.8240    15.1230    75.4780 hc         1 B7Y       0.041867
     27 H5          -9.0640    14.9920    75.3850 hc         1 B7Y       0.041867
     28 H6          -8.6420    18.0900    75.1660 hc         1 B7Y       0.041867
     29 H7          -7.7230    16.9200    74.2220 hc         1 B7Y       0.041867
     30 H8          -8.5920    18.2260    73.4160 hc         1 B7Y       0.041867
     31 H9         -14.1440    15.0950    72.2600 h1         1 B7Y       0.048367
     32 H10        -13.1880    13.6800    71.7730 h1         1 B7Y       0.048367
     33 H11        -13.4760    14.0090    73.4960 h1         1 B7Y       0.048367
     34 H12         -9.2830    18.9700    70.5280 ha         1 B7Y       0.115000
     35 H13         -9.4900    20.5500    68.6700 ha         1 B7Y       0.123000
     36 H14        -10.2910    19.7930    66.4700 ha         1 B7Y       0.138000
     37 H15        -12.1070    15.5670    66.2270 hc         1 B7Y       0.068200
     38 H16        -10.4490    15.2700    65.7870 hc         1 B7Y       0.068200
     39 H17        -10.9890    15.8170    63.3810 hc         1 B7Y       0.069200
     40 H18        -12.6670    16.0860    63.8310 hc         1 B7Y       0.069200
     41 H19        -12.8410    13.7250    64.6270 h1         1 B7Y       0.062700
     42 H20        -11.1490    13.4540    64.1870 h1         1 B7Y       0.062700
     43 H21        -10.6720    15.8070    68.0070 ha         1 B7Y       0.137000
     44 H22        -10.2810    17.6580    71.9170 hn         1 B7Y       0.324500
     45 O09        -12.1610    15.3240    72.5460 os         1 B7Y      -0.445100
@<TRIPOS>BOND
     1     1     8 1   
     2     1    18 1   
     3     1    19 2   
     4     2     3 1   
     5     2     6 1   
     6     2    18 1   
     7     2    23 1   
     8     3     4 1   
     9     3     5 1   
    10     3    24 1   
    11     4    25 1   
    12     4    26 1   
    13     4    27 1   
    14     5    28 1   
    15     5    29 1   
    16     5    30 1   
    17     6    20 2   
    18     6    45 1   
    19     7    31 1   
    20     7    32 1   
    21     7    33 1   
    22     7    45 1   
    23     8     9 ar  
    24     8    17 ar  
    25     9    10 ar  
    26     9    34 1   
    27    10    11 ar  
    28    10    35 1   
    29    11    12 ar  
    30    11    36 1   
    31    12    13 1   
    32    12    17 ar  
    33    13    14 1   
    34    13    21 2   
    35    14    15 1   
    36    14    37 1   
    37    14    38 1   
    38    15    16 1   
    39    15    39 1   
    40    15    40 1   
    41    16    22 1   
    42    16    41 1   
    43    16    42 1   
    44    17    43 1   
    45    18    44 1   
@<TRIPOS>SUBSTRUCTURE
     1 B7Y         1 TEMP              0 ****  ****    0 ROOT
