@<TRIPOS>MOLECULE
B7Y
   45    45     1     0     0
SMALL
No Charge or Current Charge


@<TRIPOS>ATOM
      1 C02        -10.7490    16.0630    70.2190 c          1 B7Y       0.610700
      2 C04        -10.8200    15.4140    72.6740 c3         1 B7Y       0.061700
      3 C05         -9.5180    15.7690    73.4600 c3         1 B7Y      -0.068700
      4 C06         -9.2960    14.8290    74.6720 c3         1 B7Y      -0.091100
      5 C07         -8.2600    15.7870    72.5570 c3         1 B7Y      -0.091100
      6 C08        -12.0840    15.4020    73.5740 c          1 B7Y       0.581100
      7 C10        -13.5410    16.7920    74.9030 c3         1 B7Y       0.149900
      8 C12        -11.0260    17.1650    69.2170 ca         1 B7Y      -0.159600
      9 C13        -11.5630    18.4160    69.6030 ca         1 B7Y      -0.061000
     10 C14        -11.8110    19.4070    68.6420 ca         1 B7Y      -0.132000
     11 C15        -11.5270    19.1730    67.2880 ca         1 B7Y      -0.036000
     12 C16        -10.9830    17.9390    66.8740 ca         1 B7Y      -0.185600
     13 C17        -10.6890    17.7150    65.4030 c          1 B7Y       0.586700
     14 C18         -9.7740    16.5590    64.9620 c3         1 B7Y      -0.180400
     15 C19        -10.5890    15.2840    64.6240 c3         1 B7Y      -0.077400
     16 C20         -9.7030    14.0950    64.2050 c3         1 B7Y       0.127600
     17 C23        -10.7430    16.9410    67.8490 ca         1 B7Y      -0.024000
     18 N03        -11.0510    16.3350    71.5360 ns         1 B7Y      -0.490900
     19 O01        -10.2840    14.9830    69.8850 o          1 B7Y      -0.594100
     20 O11        -12.7950    14.4170    73.7320 o          1 B7Y      -0.468000
     21 O22        -11.1870    18.4430    64.5530 o          1 B7Y      -0.516100
     22 Cl21       -10.7130    12.6330    63.8200 cl         1 B7Y      -0.286000
     23 H1         -10.7200    14.3910    72.2880 h1         1 B7Y       0.099700
     24 H2          -9.6370    16.7840    73.8600 hc         1 B7Y       0.055700
     25 H3          -8.3770    15.0970    75.2070 hc         1 B7Y       0.041867
     26 H4         -10.1240    14.8970    75.3870 hc         1 B7Y       0.041867
     27 H5          -9.2080    13.7850    74.3450 hc         1 B7Y       0.041867
     28 H6          -7.3630    16.0170    73.1450 hc         1 B7Y       0.041867
     29 H7          -8.1110    14.8130    72.0750 hc         1 B7Y       0.041867
     30 H8          -8.3430    16.5500    71.7750 hc         1 B7Y       0.041867
     31 H9         -13.6460    17.8320    75.2380 h1         1 B7Y       0.048367
     32 H10        -14.4490    16.5200    74.3480 h1         1 B7Y       0.048367
     33 H11        -13.4720    16.1540    75.7930 h1         1 B7Y       0.048367
     34 H12        -11.7970    18.6390    70.6410 ha         1 B7Y       0.115000
     35 H13        -12.2260    20.3650    68.9480 ha         1 B7Y       0.123000
     36 H14        -11.7280    19.9610    66.5630 ha         1 B7Y       0.138000
     37 H15         -9.0710    16.3120    65.7650 hc         1 B7Y       0.068200
     38 H16         -9.2210    16.8670    64.0660 hc         1 B7Y       0.068200
     39 H17        -11.2920    15.5070    63.8110 hc         1 B7Y       0.069200
     40 H18        -11.1930    14.9880    65.4910 hc         1 B7Y       0.069200
     41 H19         -9.0160    13.8210    65.0160 h1         1 B7Y       0.062700
     42 H20         -9.1210    14.3440    63.3080 h1         1 B7Y       0.062700
     43 H21        -10.3430    15.9740    67.5540 ha         1 B7Y       0.137000
     44 H22        -11.4430    17.2460    71.7370 hn         1 B7Y       0.324500
     45 O09        -12.3720    16.6480    74.0770 os         1 B7Y      -0.445100
@<TRIPOS>BOND
     1     1     8 1   
     2     1    18 1   
     3     1    19 2   
     4     2     3 1   
     5     2     6 1   
     6     2    18 1   
     7     2    23 1   
     8     3     4 1   
     9     3     5 1   
    10     3    24 1   
    11     4    25 1   
    12     4    26 1   
    13     4    27 1   
    14     5    28 1   
    15     5    29 1   
    16     5    30 1   
    17     6    20 2   
    18     6    45 1   
    19     7    31 1   
    20     7    32 1   
    21     7    33 1   
    22     7    45 1   
    23     8     9 ar  
    24     8    17 ar  
    25     9    10 ar  
    26     9    34 1   
    27    10    11 ar  
    28    10    35 1   
    29    11    12 ar  
    30    11    36 1   
    31    12    13 1   
    32    12    17 ar  
    33    13    14 1   
    34    13    21 2   
    35    14    15 1   
    36    14    37 1   
    37    14    38 1   
    38    15    16 1   
    39    15    39 1   
    40    15    40 1   
    41    16    22 1   
    42    16    41 1   
    43    16    42 1   
    44    17    43 1   
    45    18    44 1   
@<TRIPOS>SUBSTRUCTURE
     1 B7Y         1 TEMP              0 ****  ****    0 ROOT
