@<TRIPOS>MOLECULE
B7Z
   51    54     1     0     0
SMALL
No Charge or Current Charge


@<TRIPOS>ATOM
      1 C1          -4.3170     0.8650     2.1600 cc         1 B7Z       0.502800
      2 C2          -4.5050    -0.3160     0.1610 ca         1 B7Z       0.149400
      3 C3          -5.8410    -0.6590     0.4730 ca         1 B7Z      -0.167600
      4 C4          -6.5790    -1.4450    -0.4320 ca         1 B7Z      -0.098000
      5 C5          -5.9750    -1.8710    -1.6200 ca         1 B7Z       0.337900
      6 C6          -3.9640    -0.7940    -1.0860 ca         1 B7Z       0.476500
      7 N1          -3.7100     0.4770     1.0370 nd         1 B7Z      -0.580100
      8 O3           7.7360     0.9670     1.9030 o          1 B7Z      -0.607100
      9 C7          -1.5380    -1.0640    -0.7790 cc         1 B7Z      -0.127000
     10 N           -5.6060     0.5560     2.5010 ns         1 B7Z      -0.427400
     11 C           -6.4430    -0.1860     1.7460 c          1 B7Z       0.572600
     12 C10          1.6630     0.4820    -0.3930 c3         1 B7Z       0.167800
     13 C11          4.0150     0.0700    -1.1080 c6         1 B7Z       0.146800
     14 C12          5.4600    -0.2610    -0.6410 c6         1 B7Z       0.098500
     15 C13          7.3700     0.5850     0.7970 c          1 B7Z       0.606100
     16 C14          8.3950     0.1200    -0.2600 c3         1 B7Z      -0.152400
     17 C15          9.8840     0.2460     0.1400 c3         1 B7Z      -0.076100
     18 C19          4.9910     1.0400     1.4630 c6         1 B7Z       0.098500
     19 C20          3.5720     1.3330     0.9060 c6         1 B7Z       0.146800
     20 C21         -1.0140     0.4740    -2.3230 cd         1 B7Z       0.244900
     21 C8          -0.4760    -0.4510    -1.3880 cd         1 B7Z      -0.206300
     22 C9           0.9890    -0.6980    -1.1320 c3         1 B7Z       0.008900
     23 N2          -4.7030    -1.5600    -1.9440 nb         1 B7Z      -0.672000
     24 N3          -2.6290    -0.4540    -1.3830 na         1 B7Z       0.111300
     25 N4           3.0700     0.2460     0.0280 n3         1 B7Z      -0.719600
     26 N5           6.0010     0.6210     0.4430 n          1 B7Z      -0.417800
     27 N7          -2.3340     0.4910    -2.3480 nc         1 B7Z      -0.479800
     28 O           -7.5860    -0.4340     2.0960 o          1 B7Z      -0.518000
     29 H1          -3.8220     1.4710     2.9090 h5         1 B7Z       0.055800
     30 H2          -7.6090    -1.7290    -0.2270 ha         1 B7Z       0.151000
     31 H3          -6.5250    -2.4810    -2.3350 h4         1 B7Z       0.034100
     32 H4          -1.6120    -1.8270    -0.0130 h4         1 B7Z       0.165000
     33 H5          -5.9760     0.8970     3.3760 hn         1 B7Z       0.336500
     34 H6           1.6080     1.3740    -1.0330 h1         1 B7Z       0.035700
     35 H7           1.0560     0.6940     0.4980 h1         1 B7Z       0.035700
     36 H8           4.0460     0.9880    -1.7140 h1         1 B7Z       0.039950
     37 H9           3.6870    -0.7400    -1.7730 h1         1 B7Z       0.039950
     38 H10          5.4770    -1.2980    -0.2770 h1         1 B7Z       0.058200
     39 H11          6.1090    -0.2190    -1.5260 h1         1 B7Z       0.058200
     40 H12          8.1500    -0.9100    -0.5410 hc         1 B7Z       0.054200
     41 H13          8.1870     0.6540    -1.1940 hc         1 B7Z       0.054200
     42 H14         10.5290    -0.1040    -0.6750 hc         1 B7Z       0.042033
     43 H15         10.1410     1.2900     0.3550 hc         1 B7Z       0.042033
     44 H16         10.1000    -0.3560     1.0300 hc         1 B7Z       0.042033
     45 H17          5.3480     1.9390     1.9860 h1         1 B7Z       0.058200
     46 H18          4.9110     0.2420     2.2140 h1         1 B7Z       0.058200
     47 H19          2.8920     1.4850     1.7570 h1         1 B7Z       0.039950
     48 H20          3.6040     2.2820     0.3490 h1         1 B7Z       0.039950
     49 H21         -0.4680     1.1340    -2.9870 h4         1 B7Z       0.037100
     50 H22          1.4960    -0.8740    -2.0880 hc         1 B7Z       0.052200
     51 H23          1.1170    -1.6090    -0.5350 hc         1 B7Z       0.052200
@<TRIPOS>BOND
     1     1     7 2   
     2     1    10 1   
     3     1    29 1   
     4     2     3 ar  
     5     2     6 ar  
     6     2     7 1   
     7     3     4 ar  
     8     3    11 1   
     9     4     5 ar  
    10     4    30 1   
    11     5    23 ar  
    12     5    31 1   
    13     6    23 ar  
    14     6    24 1   
    15     8    15 2   
    16     9    21 2   
    17     9    24 1   
    18     9    32 1   
    19    10    11 1   
    20    10    33 1   
    21    11    28 2   
    22    12    22 1   
    23    12    25 1   
    24    12    34 1   
    25    12    35 1   
    26    13    14 1   
    27    13    25 1   
    28    13    36 1   
    29    13    37 1   
    30    14    26 1   
    31    14    38 1   
    32    14    39 1   
    33    15    16 1   
    34    15    26 1   
    35    16    17 1   
    36    16    40 1   
    37    16    41 1   
    38    17    42 1   
    39    17    43 1   
    40    17    44 1   
    41    18    19 1   
    42    18    26 1   
    43    18    45 1   
    44    18    46 1   
    45    19    25 1   
    46    19    47 1   
    47    19    48 1   
    48    20    21 1   
    49    20    27 2   
    50    20    49 1   
    51    21    22 1   
    52    22    50 1   
    53    22    51 1   
    54    24    27 1   
@<TRIPOS>SUBSTRUCTURE
     1 B7Z         1 TEMP              0 ****  ****    0 ROOT
