@<TRIPOS>MOLECULE
B7Z
   51    54     1     0     0
SMALL
abcg2


@<TRIPOS>ATOM
      1 C1          -5.0230     2.3330     0.8550 cc         1 B7Z       0.502800
      2 C2          -4.6170     0.2560     0.0720 ca         1 B7Z       0.149400
      3 C3          -5.9270    -0.1620     0.3320 ca         1 B7Z      -0.167600
      4 C4          -6.3010    -1.4840     0.1060 ca         1 B7Z      -0.098000
      5 C5          -5.3450    -2.3520    -0.3690 ca         1 B7Z       0.337900
      6 C6          -3.7510    -0.7190    -0.4760 ca         1 B7Z       0.476500
      7 N1          -4.1660     1.5160     0.3650 nd         1 B7Z      -0.580100
      8 O3           7.7180     0.3440     1.8000 o          1 B7Z      -0.607100
      9 C7          -1.3420    -1.1900    -0.6290 cc         1 B7Z      -0.127000
     10 N           -6.3270     2.0420     1.0900 ns         1 B7Z      -0.427400
     11 C           -6.8880     0.8070     0.8710 c          1 B7Z       0.572600
     12 C10          1.9100    -0.3500     0.0050 c3         1 B7Z       0.167800
     13 C11          4.0830     0.0660    -0.9540 c6         1 B7Z       0.146800
     14 C12          5.5340    -0.3830    -0.9770 c6         1 B7Z       0.098500
     15 C13          7.2770     0.3310     0.6570 c          1 B7Z       0.606100
     16 C14          8.0240     1.0180    -0.4730 c3         1 B7Z      -0.152400
     17 C15          9.3330     1.6430    -0.0230 c3         1 B7Z      -0.076100
     18 C19          5.3460    -0.9980     1.3520 c6         1 B7Z       0.098500
     19 C20          3.9020    -0.5320     1.3360 c6         1 B7Z       0.146800
     20 C21         -0.8400     0.6460    -1.7110 cd         1 B7Z       0.244900
     21 C8          -0.2740    -0.5390    -1.1870 cd         1 B7Z      -0.206300
     22 C9           1.1630    -0.9440    -1.1900 c3         1 B7Z       0.008900
     23 N2          -4.1030    -1.9640    -0.6680 nb         1 B7Z      -0.672000
     24 N3          -2.4300    -0.4000    -0.8220 na         1 B7Z       0.111300
     25 N4           3.3190    -0.6950     0.0170 n3         1 B7Z      -0.719600
     26 N5           6.1180    -0.2920     0.3470 n          1 B7Z      -0.417800
     27 N7          -2.1320     0.7180    -1.4920 nc         1 B7Z      -0.479800
     28 O           -8.0550     0.5710     1.1070 o          1 B7Z      -0.518000
     29 H1          -4.7240     3.3400     1.1160 h5         1 B7Z       0.055800
     30 H2          -7.3070    -1.8240     0.3100 ha         1 B7Z       0.151000
     31 H3          -5.5750    -3.3960    -0.5360 h4         1 B7Z       0.034100
     32 H4          -1.4090    -2.1310    -0.1080 h4         1 B7Z       0.165000
     33 H5          -6.9210     2.7700     1.4670 hn         1 B7Z       0.336500
     34 H6           1.7570     0.7420     0.0330 h1         1 B7Z       0.035700
     35 H7           1.4560    -0.7460     0.9180 h1         1 B7Z       0.035700
     36 H8           4.0400     1.1490    -0.7430 h1         1 B7Z       0.039950
     37 H9           3.6720    -0.0840    -1.9540 h1         1 B7Z       0.039950
     38 H10          5.5890    -1.4200    -1.3250 h1         1 B7Z       0.058200
     39 H11          6.0810     0.2290    -1.6880 h1         1 B7Z       0.058200
     40 H12          8.2150     0.2950    -1.2710 hc         1 B7Z       0.054200
     41 H13          7.3810     1.7830    -0.9180 hc         1 B7Z       0.054200
     42 H14          9.8300     2.1090    -0.8730 hc         1 B7Z       0.042033
     43 H15          9.1760     2.4120     0.7320 hc         1 B7Z       0.042033
     44 H16         10.0130     0.8990     0.3920 hc         1 B7Z       0.042033
     45 H17          5.7790    -0.8290     2.3340 h1         1 B7Z       0.058200
     46 H18          5.3860    -2.0740     1.1470 h1         1 B7Z       0.058200
     47 H19          3.3350    -1.1290     2.0540 h1         1 B7Z       0.039950
     48 H20          3.8580     0.5160     1.6780 h1         1 B7Z       0.039950
     49 H21         -0.3350     1.4350    -2.2490 h4         1 B7Z       0.037100
     50 H22          1.6190    -0.6190    -2.1280 hc         1 B7Z       0.052200
     51 H23          1.2520    -2.0310    -1.1570 hc         1 B7Z       0.052200
@<TRIPOS>BOND
     1     1     7 2   
     2     1    10 1   
     3     1    29 1   
     4     2     3 ar  
     5     2     6 ar  
     6     2     7 1   
     7     3     4 ar  
     8     3    11 1   
     9     4     5 ar  
    10     4    30 1   
    11     5    23 ar  
    12     5    31 1   
    13     6    23 ar  
    14     6    24 1   
    15     8    15 2   
    16     9    21 2   
    17     9    24 1   
    18     9    32 1   
    19    10    11 1   
    20    10    33 1   
    21    11    28 2   
    22    12    22 1   
    23    12    25 1   
    24    12    34 1   
    25    12    35 1   
    26    13    14 1   
    27    13    25 1   
    28    13    36 1   
    29    13    37 1   
    30    14    26 1   
    31    14    38 1   
    32    14    39 1   
    33    15    16 1   
    34    15    26 1   
    35    16    17 1   
    36    16    40 1   
    37    16    41 1   
    38    17    42 1   
    39    17    43 1   
    40    17    44 1   
    41    18    19 1   
    42    18    26 1   
    43    18    45 1   
    44    18    46 1   
    45    19    25 1   
    46    19    47 1   
    47    19    48 1   
    48    20    21 1   
    49    20    27 2   
    50    20    49 1   
    51    21    22 1   
    52    22    50 1   
    53    22    51 1   
    54    24    27 1   
@<TRIPOS>SUBSTRUCTURE
     1 B7Z         1 TEMP              0 ****  ****    0 ROOT
