@<TRIPOS>MOLECULE
B80
   58    61     1     0     0
SMALL
No Charge or Current Charge


@<TRIPOS>ATOM
      1 O31          6.9430    -0.4650     2.2040 o          1 B80      -0.525000
      2 S35          7.1140     0.5960     1.2090 s6         1 B80       1.188100
      3 O30          7.9560     1.7570     1.4940 o          1 B80      -0.525000
      4 C20          7.6200    -0.1170    -0.3410 c3         1 B80      -0.382100
      5 N26          5.6020     1.2230     0.9170 nu         1 B80      -0.873100
      6 C10          4.4450     0.6040     0.4230 ca         1 B80       0.204000
      7 C4           4.2330    -0.7930     0.4850 ca         1 B80      -0.015000
      8 C3           3.0510    -1.3610    -0.0280 ca         1 B80      -0.118000
      9 C7           3.4410     1.4100    -0.1490 ca         1 B80      -0.023000
     10 C12          2.2610     0.8250    -0.6540 ca         1 B80      -0.340500
     11 C9           2.0640    -0.5490    -0.6020 ca         1 B80       0.284400
     12 N23          0.8920    -1.1270    -1.1140 ne         1 B80      -0.782100
     13 S34          0.9860     1.7900    -1.3870 sy         1 B80       1.201600
     14 O28          0.1490     2.3810    -0.3440 o          1 B80      -0.525000
     15 O29          1.5250     2.5870    -2.4890 o          1 B80      -0.525000
     16 N24          0.0000     0.6940    -2.0960 nu         1 B80      -0.880300
     17 C15         -0.1650    -0.4440    -1.4330 cf         1 B80       0.834500
     18 C13         -1.4510    -1.1200    -1.3570 cf         1 B80      -0.486800
     19 C14         -1.6090    -2.4570    -1.2340 c2         1 B80       0.287900
     20 O32         -0.5690    -3.2930    -1.1700 oh         1 B80      -0.530100
     21 C17         -2.9480    -3.1480    -1.2080 c6         1 B80      -0.088200
     22 C18         -3.9980    -2.2470    -0.5340 c6         1 B80       0.126700
     23 C22         -5.4110    -2.9270    -0.5130 c3         1 B80      -0.089400
     24 C19         -5.4810    -4.3110     0.1710 c3         1 B80      -0.095100
     25 C16         -2.6810    -0.2820    -1.4190 c          1 B80       0.611200
     26 O27         -2.6150     0.9030    -1.7120 o          1 B80      -0.599000
     27 N25         -3.9310    -0.8810    -1.1430 n          1 B80      -0.391800
     28 C21         -5.1470    -0.0220    -1.2200 c3         1 B80       0.150300
     29 C8          -5.3010     0.9380    -0.0400 ca         1 B80      -0.133300
     30 C1          -5.2900     2.3310    -0.2650 ca         1 B80      -0.065000
     31 C5          -5.4270     3.2250     0.8120 ca         1 B80      -0.154000
     32 C2          -5.4500     0.4520     1.2760 ca         1 B80      -0.065000
     33 C6          -5.5860     1.3480     2.3510 ca         1 B80      -0.154000
     34 C11         -5.5750     2.7310     2.1160 ca         1 B80       0.181000
     35 F33         -5.7060     3.5900     3.1500 f          1 B80      -0.176000
     36 H20          6.9100    -0.9100    -0.5950 h1         1 B80       0.105033
     37 H20A         7.6100     0.6810    -1.0900 h1         1 B80       0.105033
     38 H20B         8.6290    -0.5180    -0.2030 h1         1 B80       0.105033
     39 HN26         5.7370     2.2120     0.7530 hn         1 B80       0.491000
     40 H4           4.9720    -1.4490     0.9310 ha         1 B80       0.149000
     41 H3           2.9020    -2.4360     0.0230 ha         1 B80       0.134000
     42 H7           3.5800     2.4880    -0.2020 ha         1 B80       0.129000
     43 HN24        -0.8920     1.1700    -2.1000 hn         1 B80       0.580000
     44 HO32         0.2170    -2.6780    -1.1460 ho         1 B80       0.564000
     45 H17         -3.2530    -3.3820    -2.2370 hc         1 B80       0.091700
     46 H17A        -2.8570    -4.1020    -0.6740 hc         1 B80       0.091700
     47 H18         -3.6960    -2.1330     0.5180 h1         1 B80       0.054700
     48 H22         -6.1250    -2.2910     0.0210 hc         1 B80       0.055200
     49 H22A        -5.7910    -3.0260    -1.5380 hc         1 B80       0.055200
     50 H19         -6.5250    -4.6360     0.2610 hc         1 B80       0.040700
     51 H19A        -4.9460    -5.0710    -0.4090 hc         1 B80       0.040700
     52 H19B        -5.0500    -4.2690     1.1780 hc         1 B80       0.040700
     53 H21         -5.0910     0.5610    -2.1480 h1         1 B80       0.068200
     54 H21A        -6.0580    -0.6210    -1.3210 h1         1 B80       0.068200
     55 H1          -5.1710     2.7220    -1.2730 ha         1 B80       0.117500
     56 H5          -5.4170     4.2970     0.6370 ha         1 B80       0.134000
     57 H2          -5.4560    -0.6160     1.4730 ha         1 B80       0.117500
     58 H6          -5.7000     0.9730     3.3650 ha         1 B80       0.134000
@<TRIPOS>BOND
     1     1     2 2   
     2     2     3 2   
     3     2     4 1   
     4     2     5 1   
     5     4    36 1   
     6     4    37 1   
     7     4    38 1   
     8     5     6 1   
     9     5    39 1   
    10     6     7 ar  
    11     6     9 ar  
    12     7     8 ar  
    13     7    40 1   
    14     8    11 ar  
    15     8    41 1   
    16     9    10 ar  
    17     9    42 1   
    18    10    11 ar  
    19    10    13 1   
    20    11    12 1   
    21    12    17 2   
    22    13    14 2   
    23    13    15 2   
    24    13    16 1   
    25    16    17 1   
    26    16    43 1   
    27    17    18 1   
    28    18    19 2   
    29    18    25 1   
    30    19    20 1   
    31    19    21 1   
    32    20    44 1   
    33    21    22 1   
    34    21    45 1   
    35    21    46 1   
    36    22    23 1   
    37    22    27 1   
    38    22    47 1   
    39    23    24 1   
    40    23    48 1   
    41    23    49 1   
    42    24    50 1   
    43    24    51 1   
    44    24    52 1   
    45    25    26 2   
    46    25    27 1   
    47    27    28 1   
    48    28    29 1   
    49    28    53 1   
    50    28    54 1   
    51    29    30 ar  
    52    29    32 ar  
    53    30    31 ar  
    54    30    55 1   
    55    31    34 ar  
    56    31    56 1   
    57    32    33 ar  
    58    32    57 1   
    59    33    34 ar  
    60    33    58 1   
    61    34    35 1   
@<TRIPOS>SUBSTRUCTURE
     1 B80         1 TEMP              0 ****  ****    0 ROOT
