@<TRIPOS>MOLECULE
B80
   58    61     1     0     0
SMALL
abcg2


@<TRIPOS>ATOM
      1 O31          7.0850    -1.2560    -0.6050 o          1 B80      -0.525000
      2 S35          7.2430     0.1680    -0.3660 s6         1 B80       1.188100
      3 O30          8.5200     0.6880     0.0870 o          1 B80      -0.525000
      4 C20          6.7510     1.0400    -1.8340 c3         1 B80      -0.382100
      5 N26          6.1400     0.5930     0.8110 nu         1 B80      -0.873100
      6 C10          4.7960     0.1710     0.6980 ca         1 B80       0.204000
      7 C4           4.4650    -1.1700     0.9200 ca         1 B80      -0.015000
      8 C3           3.1600    -1.5980     0.8160 ca         1 B80      -0.118000
      9 C7           3.7930     1.0800     0.4110 ca         1 B80      -0.023000
     10 C12          2.4780     0.6400     0.3510 ca         1 B80      -0.340500
     11 C9           2.1260    -0.7030     0.5190 ca         1 B80       0.284400
     12 N23          0.8490    -1.1900     0.3770 ne         1 B80      -0.782100
     13 S34          1.1940     1.8090     0.1850 sy         1 B80       1.201600
     14 O28          0.7360     2.2030     1.5030 o          1 B80      -0.525000
     15 O29          1.5330     2.8540    -0.7600 o          1 B80      -0.525000
     16 N24          0.0680     0.8220    -0.5330 nu         1 B80      -0.880300
     17 C15         -0.1010    -0.4770    -0.1600 cf         1 B80       0.834500
     18 C13         -1.3780    -1.1120    -0.4340 cf         1 B80      -0.486800
     19 C14         -1.5210    -2.4640    -0.2130 c2         1 B80       0.287900
     20 O32         -0.5860    -3.2250     0.2600 oh         1 B80      -0.530100
     21 C17         -2.7970    -3.1350    -0.5610 c6         1 B80      -0.088200
     22 C18         -3.9850    -2.1990    -0.4180 c6         1 B80       0.126700
     23 C22         -5.2590    -2.8860    -0.9090 c3         1 B80      -0.089400
     24 C19         -5.5190    -4.2160    -0.2100 c3         1 B80      -0.095100
     25 C16         -2.4880    -0.3560    -1.0300 c          1 B80       0.611200
     26 O27         -2.3160     0.7990    -1.4440 o          1 B80      -0.599000
     27 N25         -3.7010    -0.9450    -1.1310 n          1 B80      -0.391800
     28 C21         -4.7820    -0.0950    -1.6250 c3         1 B80       0.150300
     29 C8          -5.2720     0.9140    -0.6160 ca         1 B80      -0.133300
     30 C1          -5.1330     2.2760    -0.8600 ca         1 B80      -0.065000
     31 C5          -5.5910     3.2230     0.0460 ca         1 B80      -0.154000
     32 C2          -5.8820     0.5130     0.5710 ca         1 B80      -0.065000
     33 C6          -6.3390     1.4410     1.4950 ca         1 B80      -0.154000
     34 C11         -6.1840     2.7850     1.2140 ca         1 B80       0.181000
     35 F33         -6.6240     3.6910     2.1020 f          1 B80      -0.176000
     36 H20          5.7400     0.7470    -2.1100 h1         1 B80       0.105033
     37 H20A         6.8010     2.1100    -1.6480 h1         1 B80       0.105033
     38 H20B         7.4430     0.7670    -2.6300 h1         1 B80       0.105033
     39 HN26         6.2620     1.5550     1.1110 hn         1 B80       0.491000
     40 H4           5.2380    -1.8770     1.1830 ha         1 B80       0.149000
     41 H3           2.9180    -2.6420     0.9710 ha         1 B80       0.134000
     42 H7           4.0330     2.1230     0.2460 ha         1 B80       0.129000
     43 HN24        -0.7750     1.2380    -0.9810 hn         1 B80       0.580000
     44 HO32         0.2230    -2.6230     0.4320 ho         1 B80       0.564000
     45 H17         -2.7240    -3.5060    -1.5910 hc         1 B80       0.091700
     46 H17A        -2.9250    -4.0020     0.0860 hc         1 B80       0.091700
     47 H18         -4.1140    -1.9770     0.6510 h1         1 B80       0.054700
     48 H22         -6.1210    -2.2430    -0.7270 hc         1 B80       0.055200
     49 H22A        -5.2000    -3.0360    -1.9900 hc         1 B80       0.055200
     50 H19         -6.5180    -4.5750    -0.4560 hc         1 B80       0.040700
     51 H19A        -4.8140    -4.9890    -0.5110 hc         1 B80       0.040700
     52 H19B        -5.4640    -4.1120     0.8750 hc         1 B80       0.040700
     53 H21         -4.4360     0.4200    -2.5190 h1         1 B80       0.068200
     54 H21A        -5.6020    -0.7310    -1.9490 h1         1 B80       0.068200
     55 H1          -4.6630     2.6110    -1.7750 ha         1 B80       0.117500
     56 H5          -5.4830     4.2810    -0.1530 ha         1 B80       0.134000
     57 H2          -6.0190    -0.5380     0.7940 ha         1 B80       0.117500
     58 H6          -6.8100     1.1220     2.4160 ha         1 B80       0.134000
@<TRIPOS>BOND
     1     1     2 2   
     2     2     3 2   
     3     2     4 1   
     4     2     5 1   
     5     4    36 1   
     6     4    37 1   
     7     4    38 1   
     8     5     6 1   
     9     5    39 1   
    10     6     7 ar  
    11     6     9 ar  
    12     7     8 ar  
    13     7    40 1   
    14     8    11 ar  
    15     8    41 1   
    16     9    10 ar  
    17     9    42 1   
    18    10    11 ar  
    19    10    13 1   
    20    11    12 1   
    21    12    17 2   
    22    13    14 2   
    23    13    15 2   
    24    13    16 1   
    25    16    17 1   
    26    16    43 1   
    27    17    18 1   
    28    18    19 2   
    29    18    25 1   
    30    19    20 1   
    31    19    21 1   
    32    20    44 1   
    33    21    22 1   
    34    21    45 1   
    35    21    46 1   
    36    22    23 1   
    37    22    27 1   
    38    22    47 1   
    39    23    24 1   
    40    23    48 1   
    41    23    49 1   
    42    24    50 1   
    43    24    51 1   
    44    24    52 1   
    45    25    26 2   
    46    25    27 1   
    47    27    28 1   
    48    28    29 1   
    49    28    53 1   
    50    28    54 1   
    51    29    30 ar  
    52    29    32 ar  
    53    30    31 ar  
    54    30    55 1   
    55    31    34 ar  
    56    31    56 1   
    57    32    33 ar  
    58    32    57 1   
    59    33    34 ar  
    60    33    58 1   
    61    34    35 1   
@<TRIPOS>SUBSTRUCTURE
     1 B80         1 TEMP              0 ****  ****    0 ROOT
