@<TRIPOS>MOLECULE
B81
   51    54     1     0     0
SMALL
No Charge or Current Charge


@<TRIPOS>ATOM
      1 C1           2.5070    -1.4680    -0.6370 c6         1 B81      -0.067400
      2 C2           4.0330    -1.4130    -0.3840 c6         1 B81      -0.072400
      3 C3           4.5720     0.0150    -0.6030 c6         1 B81       0.172300
      4 O3           5.9810     0.0490    -0.3600 oh         1 B81      -0.660000
      5 C4           3.8440     1.0060     0.3310 c6         1 B81      -0.074200
      6 C5           2.3200     0.9450     0.1790 c2         1 B81      -0.106400
      7 C6           1.6080     2.0780     0.0400 c2         1 B81      -0.218200
      8 C7           0.0990     2.1420    -0.0990 c6         1 B81      -0.037200
      9 C8          -0.6110     0.8080     0.2540 c6         1 B81      -0.041700
     10 C9           0.1920    -0.4070    -0.3300 c6         1 B81      -0.046700
     11 C10          1.6740    -0.4620     0.2350 c6         1 B81       0.002200
     12 C11         -0.5970    -1.7620    -0.1770 c6         1 B81      -0.071400
     13 C12         -2.0610    -1.6810    -0.6980 c6         1 B81      -0.058400
     14 C13         -2.8420    -0.5150    -0.0270 c5         1 B81      -0.037000
     15 C14         -2.0660     0.8040    -0.3010 c5         1 B81      -0.067700
     16 C15         -3.0560     1.8870     0.2140 c5         1 B81      -0.066400
     17 C16         -4.4560     1.3170    -0.2050 c5         1 B81      -0.116400
     18 C17         -4.1640    -0.1160    -0.7670 c5         1 B81       0.170300
     19 O17         -5.2440    -1.0180    -0.5300 oh         1 B81      -0.651000
     20 C18         -3.0690    -0.8600     1.4910 c3         1 B81      -0.072100
     21 C19          1.7060    -0.9070     1.7400 c3         1 B81      -0.080100
     22 H1           2.3300    -1.2640    -1.7020 hc         1 B81       0.042200
     23 H1A          2.1650    -2.4970    -0.4660 hc         1 B81       0.042200
     24 H2           4.2670    -1.7580     0.6320 hc         1 B81       0.053200
     25 H2A          4.5400    -2.1070    -1.0680 hc         1 B81       0.053200
     26 H3           4.3680     0.3060    -1.6450 h1         1 B81       0.030700
     27 HO3          6.2810     0.9600    -0.5720 ho         1 B81       0.441000
     28 H4           4.1140     0.7930     1.3740 hc         1 B81       0.049700
     29 H4A          4.2040     2.0250     0.1330 hc         1 B81       0.049700
     30 H6           2.1130     3.0450     0.0210 ha         1 B81       0.168000
     31 H7          -0.2920     2.9430     0.5430 hc         1 B81       0.045700
     32 H7A         -0.1350     2.4360    -1.1320 hc         1 B81       0.045700
     33 H8          -0.6530     0.7260     1.3470 hc         1 B81       0.056700
     34 H9           0.2700    -0.2220    -1.4110 hc         1 B81       0.044700
     35 H11         -0.0860    -2.5590    -0.7310 hc         1 B81       0.041200
     36 H11A        -0.6120    -2.0910     0.8680 hc         1 B81       0.041200
     37 H12         -2.0440    -1.5370    -1.7870 hc         1 B81       0.044200
     38 H12A        -2.5770    -2.6350    -0.5260 hc         1 B81       0.044200
     39 H14         -1.9370     0.9370    -1.3840 hc         1 B81       0.042700
     40 H15         -2.9850     2.0190     1.3000 hc         1 B81       0.044200
     41 H15A        -2.8600     2.8670    -0.2360 hc         1 B81       0.044200
     42 H16         -5.1350     1.2910     0.6550 hc         1 B81       0.046200
     43 H16A        -4.9370     1.9450    -0.9640 hc         1 B81       0.046200
     44 H17         -3.9780    -0.0520    -1.8490 h1         1 B81       0.026700
     45 HO17        -6.0260    -0.6480    -0.9950 ho         1 B81       0.441000
     46 H18         -2.1320    -0.9110     2.0550 hc         1 B81       0.036033
     47 H18A        -3.7030    -0.1300     2.0040 hc         1 B81       0.036033
     48 H18B        -3.5620    -1.8330     1.6000 hc         1 B81       0.036033
     49 H19          2.7170    -0.8700     2.1600 hc         1 B81       0.035367
     50 H19A         1.0840    -0.2640     2.3720 hc         1 B81       0.035367
     51 H19B         1.3620    -1.9380     1.8720 hc         1 B81       0.035367
@<TRIPOS>BOND
     1     1     2 1   
     2     1    11 1   
     3     1    22 1   
     4     1    23 1   
     5     2     3 1   
     6     2    24 1   
     7     2    25 1   
     8     3     4 1   
     9     3     5 1   
    10     3    26 1   
    11     4    27 1   
    12     5     6 1   
    13     5    28 1   
    14     5    29 1   
    15     6     7 2   
    16     6    11 1   
    17     7     8 1   
    18     7    30 1   
    19     8     9 1   
    20     8    31 1   
    21     8    32 1   
    22     9    10 1   
    23     9    15 1   
    24     9    33 1   
    25    10    11 1   
    26    10    12 1   
    27    10    34 1   
    28    11    21 1   
    29    12    13 1   
    30    12    35 1   
    31    12    36 1   
    32    13    14 1   
    33    13    37 1   
    34    13    38 1   
    35    14    15 1   
    36    14    18 1   
    37    14    20 1   
    38    15    16 1   
    39    15    39 1   
    40    16    17 1   
    41    16    40 1   
    42    16    41 1   
    43    17    18 1   
    44    17    42 1   
    45    17    43 1   
    46    18    19 1   
    47    18    44 1   
    48    19    45 1   
    49    20    46 1   
    50    20    47 1   
    51    20    48 1   
    52    21    49 1   
    53    21    50 1   
    54    21    51 1   
@<TRIPOS>SUBSTRUCTURE
     1 B81         1 TEMP              0 ****  ****    0 ROOT
