@<TRIPOS>MOLECULE
B81
   51    54     1     0     0
SMALL
bcc


@<TRIPOS>ATOM
      1 C1           2.4560    -1.3860    -0.6840 c6         1 B81      -0.067400
      2 C2           3.9550    -1.3680    -0.4110 c6         1 B81      -0.072400
      3 C3           4.5020     0.0400    -0.5450 c6         1 B81       0.149100
      4 O3           5.8900     0.0100    -0.2850 oh         1 B81      -0.597800
      5 C4           3.7600     0.9700     0.4120 c6         1 B81      -0.074200
      6 C5           2.2690     0.9210     0.2070 c2         1 B81      -0.106400
      7 C6           1.5740     2.0440     0.0290 c2         1 B81      -0.168200
      8 C7           0.0910     2.1110    -0.1310 c6         1 B81      -0.037200
      9 C8          -0.6050     0.8080     0.2430 c6         1 B81      -0.041700
     10 C9           0.1780    -0.3850    -0.3280 c6         1 B81      -0.046700
     11 C10          1.6250    -0.4560     0.2270 c6         1 B81       0.002200
     12 C11         -0.5820    -1.7100    -0.1770 c6         1 B81      -0.071400
     13 C12         -2.0260    -1.6570    -0.6820 c6         1 B81      -0.058400
     14 C13         -2.7880    -0.5100    -0.0280 c5         1 B81      -0.037000
     15 C14         -2.0230     0.7880    -0.3010 c5         1 B81      -0.067700
     16 C15         -2.9960     1.8920     0.1190 c5         1 B81      -0.066400
     17 C16         -4.3860     1.3020    -0.2110 c5         1 B81      -0.116400
     18 C17         -4.1250    -0.1470    -0.6800 c5         1 B81       0.147100
     19 O17         -5.1410    -1.0630    -0.3510 oh         1 B81      -0.588800
     20 C18         -2.9870    -0.7760     1.4680 c3         1 B81      -0.072100
     21 C19          1.6610    -0.9810     1.6710 c3         1 B81      -0.080100
     22 H1           2.2890    -1.0900    -1.7260 hc         1 B81       0.042200
     23 H1A          2.0900    -2.4110    -0.5950 hc         1 B81       0.042200
     24 H2           4.1690    -1.7480     0.5940 hc         1 B81       0.053200
     25 H2A          4.4590    -2.0370    -1.1140 hc         1 B81       0.053200
     26 H3           4.3130     0.3850    -1.5740 h1         1 B81       0.030700
     27 HO3          6.2360     0.9000    -0.4070 ho         1 B81       0.402000
     28 H4           4.0130     0.6700     1.4360 hc         1 B81       0.049700
     29 H4A          4.1130     1.9980     0.2890 hc         1 B81       0.049700
     30 H6           2.1110     2.9890     0.0040 ha         1 B81       0.118000
     31 H7          -0.3030     2.9370     0.4690 hc         1 B81       0.045700
     32 H7A         -0.1500     2.3740    -1.1700 hc         1 B81       0.045700
     33 H8          -0.6320     0.7320     1.3370 hc         1 B81       0.056700
     34 H9           0.2760    -0.1900    -1.4070 hc         1 B81       0.044700
     35 H11         -0.0490    -2.5010    -0.7100 hc         1 B81       0.041200
     36 H11A        -0.5870    -2.0150     0.8720 hc         1 B81       0.041200
     37 H12         -2.0340    -1.5160    -1.7690 hc         1 B81       0.044200
     38 H12A        -2.5120    -2.6170    -0.4870 hc         1 B81       0.044200
     39 H14         -1.9230     0.8570    -1.3970 hc         1 B81       0.042700
     40 H15         -2.9040     2.1040     1.1880 hc         1 B81       0.044200
     41 H15A        -2.8020     2.8300    -0.4030 hc         1 B81       0.044200
     42 H16         -5.0290     1.2900     0.6710 hc         1 B81       0.046200
     43 H16A        -4.9080     1.8800    -0.9760 hc         1 B81       0.046200
     44 H17         -3.9660    -0.1390    -1.7690 h1         1 B81       0.026700
     45 HO17        -5.9430    -0.8000    -0.8130 ho         1 B81       0.402000
     46 H18         -2.0400    -0.8780     1.9970 hc         1 B81       0.036033
     47 H18A        -3.5430     0.0190     1.9650 hc         1 B81       0.036033
     48 H18B        -3.5410    -1.7040     1.6220 hc         1 B81       0.036033
     49 H19          2.6600    -0.9020     2.0970 hc         1 B81       0.035367
     50 H19A         0.9910    -0.4120     2.3180 hc         1 B81       0.035367
     51 H19B         1.3750    -2.0320     1.7300 hc         1 B81       0.035367
@<TRIPOS>BOND
     1     1     2 1   
     2     1    11 1   
     3     1    22 1   
     4     1    23 1   
     5     2     3 1   
     6     2    24 1   
     7     2    25 1   
     8     3     4 1   
     9     3     5 1   
    10     3    26 1   
    11     4    27 1   
    12     5     6 1   
    13     5    28 1   
    14     5    29 1   
    15     6     7 2   
    16     6    11 1   
    17     7     8 1   
    18     7    30 1   
    19     8     9 1   
    20     8    31 1   
    21     8    32 1   
    22     9    10 1   
    23     9    15 1   
    24     9    33 1   
    25    10    11 1   
    26    10    12 1   
    27    10    34 1   
    28    11    21 1   
    29    12    13 1   
    30    12    35 1   
    31    12    36 1   
    32    13    14 1   
    33    13    37 1   
    34    13    38 1   
    35    14    15 1   
    36    14    18 1   
    37    14    20 1   
    38    15    16 1   
    39    15    39 1   
    40    16    17 1   
    41    16    40 1   
    42    16    41 1   
    43    17    18 1   
    44    17    42 1   
    45    17    43 1   
    46    18    19 1   
    47    18    44 1   
    48    19    45 1   
    49    20    46 1   
    50    20    47 1   
    51    20    48 1   
    52    21    49 1   
    53    21    50 1   
    54    21    51 1   
@<TRIPOS>SUBSTRUCTURE
     1 B81         1 TEMP              0 ****  ****    0 ROOT
