@<TRIPOS>MOLECULE
B82
   45    46     1     0     0
SMALL
abcg2


@<TRIPOS>ATOM
      1 S1          -3.3610    -0.5940    -0.4240 sy         1 B82       1.200600
      2 O26         -3.8150    -0.1010    -1.7130 o          1 B82      -0.544000
      3 O25         -4.1920    -0.4090     0.7550 o          1 B82      -0.544000
      4 N20         -3.0100    -2.1680    -0.5770 n3         1 B82      -0.812500
      5 C23         -2.8630    -2.8030    -1.8890 c3         1 B82       0.232800
      6 C24         -1.4460    -2.7980    -2.4310 c3         1 B82      -0.115100
      7 C21         -2.8610    -2.9990     0.6210 c3         1 B82       0.232800
      8 C22         -4.1160    -3.7870     0.9480 c3         1 B82      -0.115100
      9 C2          -1.8150     0.2420    -0.0630 ca         1 B82      -0.260500
     10 C18         -1.7800     1.6200     0.1500 ca         1 B82       0.075100
     11 BR          -3.3220     2.6880     0.0560 br         1 B82      -0.083100
     12 C17         -0.5760     2.2430     0.4360 ca         1 B82      -0.117000
     13 C16          0.5940     1.5020     0.5010 ca         1 B82      -0.022000
     14 C4           0.5760     0.1300     0.2810 ca         1 B82      -0.140600
     15 C5           1.7890    -0.7540     0.3380 c          1 B82       0.612700
     16 O15          1.6480    -1.9630     0.4560 o          1 B82      -0.651100
     17 N6           2.9630    -0.1090     0.2350 ns         1 B82      -0.156000
     18 C7           4.2610    -0.6140     0.2940 ca         1 B82      -0.003000
     19 C14          4.5580    -1.9700     0.4690 ca         1 B82      -0.172000
     20 C13          5.8750    -2.3960     0.5250 ca         1 B82      -0.106000
     21 C12          6.9190    -1.4910     0.4090 ca         1 B82      -0.170000
     22 C11          6.6250    -0.1490     0.2340 ca         1 B82      -0.063000
     23 C8           5.3160     0.3200     0.1720 ca         1 B82      -0.195600
     24 C9           5.1020     1.8170    -0.0260 c          1 B82       0.725600
     25 O45          3.9110     2.2290    -0.1000 o          1 B82      -0.705000
     26 O10          6.1060     2.5320    -0.1060 o          1 B82      -0.705000
     27 C3          -0.6420    -0.4850     0.0130 ca         1 B82      -0.003000
     28 H23         -3.2130    -3.8290    -1.7660 h1         1 B82       0.056200
     29 H23A        -3.5440    -2.3370    -2.5980 h1         1 B82       0.056200
     30 H24         -0.7470    -3.2800    -1.7450 hc         1 B82       0.044867
     31 H24A        -1.4140    -3.3500    -3.3700 hc         1 B82       0.044867
     32 H24B        -1.0920    -1.7860    -2.6280 hc         1 B82       0.044867
     33 H21         -2.0200    -3.6740     0.4460 h1         1 B82       0.056200
     34 H22         -4.9480    -3.1200     1.1700 hc         1 B82       0.044867
     35 H22A        -4.4070    -4.4360     0.1210 hc         1 B82       0.044867
     36 H17         -0.5370     3.3090     0.6100 ha         1 B82       0.132000
     37 H16          1.5080     2.0290     0.7440 ha         1 B82       0.166000
     38 HN6          3.0110     0.9190     0.0650 hn         1 B82       0.236000
     39 H14          3.7650    -2.6930     0.5590 ha         1 B82       0.129000
     40 H13          6.0790    -3.4510     0.6600 ha         1 B82       0.087000
     41 H12          7.9470    -1.8250     0.4550 ha         1 B82       0.092000
     42 H11          7.4300     0.5680     0.1440 ha         1 B82       0.129000
     43 H3          -0.6550    -1.5550    -0.1400 ha         1 B82       0.139000
     44 H18         -2.5750    -2.3760     1.4680 h1         1 B82       0.056200
     45 H19         -3.9420    -4.4200     1.8180 hc         1 B82       0.044867
@<TRIPOS>BOND
     1     1     2 2   
     2     1     3 2   
     3     1     4 1   
     4     1     9 1   
     5     4     5 1   
     6     4     7 1   
     7     5     6 1   
     8     5    28 1   
     9     5    29 1   
    10     6    30 1   
    11     6    31 1   
    12     6    32 1   
    13     7     8 1   
    14     7    33 1   
    15     7    44 1   
    16     8    34 1   
    17     8    35 1   
    18     8    45 1   
    19     9    10 ar  
    20     9    27 ar  
    21    10    11 1   
    22    10    12 ar  
    23    12    13 ar  
    24    12    36 1   
    25    13    14 ar  
    26    13    37 1   
    27    14    15 1   
    28    14    27 ar  
    29    15    16 2   
    30    15    17 1   
    31    17    18 1   
    32    17    38 1   
    33    18    19 ar  
    34    18    23 ar  
    35    19    20 ar  
    36    19    39 1   
    37    20    21 ar  
    38    20    40 1   
    39    21    22 ar  
    40    21    41 1   
    41    22    23 ar  
    42    22    42 1   
    43    23    24 1   
    44    24    25 1   
    45    24    26 1   
    46    27    43 1   
@<TRIPOS>SUBSTRUCTURE
     1 B82         1 TEMP              0 ****  ****    0 ROOT
