@<TRIPOS>MOLECULE
B82
   45    46     1     0     0
SMALL
No Charge or Current Charge


@<TRIPOS>ATOM
      1 S1          -2.7830    -0.9760    -1.6470 sy         1 B82       1.200600
      2 O26         -2.2360    -1.1070    -3.0030 o          1 B82      -0.544000
      3 O25         -4.1070    -0.3970    -1.4040 o          1 B82      -0.544000
      4 N20         -2.8110    -2.5690    -1.0110 n3         1 B82      -0.812500
      5 C23         -3.9140    -3.4290    -1.5100 c3         1 B82       0.232800
      6 C24         -3.8890    -3.7300    -3.0220 c3         1 B82      -0.115100
      7 C21         -2.5890    -2.7020     0.4530 c3         1 B82       0.232800
      8 C22         -3.7470    -2.2180     1.3520 c3         1 B82      -0.115100
      9 C2          -1.4920    -0.1540    -0.6630 ca         1 B82      -0.260500
     10 C18         -1.7050     0.9300     0.2290 ca         1 B82       0.075100
     11 Br          -3.4030     1.7720     0.5560 br         1 B82      -0.083100
     12 C17         -0.6160     1.4670     0.9330 ca         1 B82      -0.117000
     13 C16          0.6810     0.9590     0.7690 ca         1 B82      -0.022000
     14 C4           0.9200    -0.1110    -0.1240 ca         1 B82      -0.140600
     15 C5           2.3040    -0.6980    -0.3440 c          1 B82       0.612700
     16 O15          2.4700    -1.6510    -1.1000 o          1 B82      -0.651100
     17 N6           3.3460    -0.0860     0.3400 ns         1 B82      -0.156000
     18 C7           4.7370    -0.3720     0.4410 ca         1 B82      -0.003000
     19 C14          5.2620    -1.6360     0.0840 ca         1 B82      -0.172000
     20 C13          6.6350    -1.9010     0.1890 ca         1 B82      -0.106000
     21 C12          7.5040    -0.9100     0.6570 ca         1 B82      -0.170000
     22 C11          7.0010     0.3460     1.0280 ca         1 B82      -0.063000
     23 C8           5.6180     0.6310     0.9340 ca         1 B82      -0.195600
     24 C9           5.1320     2.0080     1.3530 c          1 B82       0.725600
     25 O45          4.0170     2.1150     1.8430 o          1 B82      -0.705000
     26 O10          5.8880     2.9570     1.2000 o          1 B82      -0.705000
     27 C3          -0.1790    -0.6510    -0.8300 ca         1 B82      -0.003000
     28 H23         -3.8690    -4.4000    -1.0000 h1         1 B82       0.056200
     29 H23A        -4.8900    -2.9910    -1.2580 h1         1 B82       0.056200
     30 H24         -2.8980    -4.0840    -3.3290 hc         1 B82       0.044867
     31 H24A        -4.6200    -4.5110    -3.2590 hc         1 B82       0.044867
     32 H24B        -4.1480    -2.8440    -3.6120 hc         1 B82       0.044867
     33 H21         -2.4230    -3.7630     0.6870 h1         1 B82       0.056200
     34 H22         -3.9300    -1.1470     1.2270 hc         1 B82       0.044867
     35 H22A        -4.6740    -2.7590     1.1310 hc         1 B82       0.044867
     36 H17         -0.7780     2.2950     1.6190 ha         1 B82       0.132000
     37 H16          1.4820     1.4140     1.3470 ha         1 B82       0.166000
     38 HN6          3.0740     0.7250     0.8810 hn         1 B82       0.236000
     39 H14          4.6150    -2.4340    -0.2670 ha         1 B82       0.129000
     40 H13          7.0240    -2.8780    -0.0900 ha         1 B82       0.087000
     41 H12          8.5690    -1.1140     0.7390 ha         1 B82       0.092000
     42 H11          7.6910     1.1020     1.3990 ha         1 B82       0.129000
     43 H3          -0.0140    -1.4810    -1.5160 ha         1 B82       0.139000
     44 H18         -1.6690    -2.1960     0.7680 h1         1 B82       0.056200
     45 H19         -3.4990    -2.3940     2.4050 hc         1 B82       0.044867
@<TRIPOS>BOND
     1     1     2 2   
     2     1     3 2   
     3     1     4 1   
     4     1     9 1   
     5     4     5 1   
     6     4     7 1   
     7     5     6 1   
     8     5    28 1   
     9     5    29 1   
    10     6    30 1   
    11     6    31 1   
    12     6    32 1   
    13     7     8 1   
    14     7    33 1   
    15     7    44 1   
    16     8    34 1   
    17     8    35 1   
    18     8    45 1   
    19     9    10 ar  
    20     9    27 ar  
    21    10    11 1   
    22    10    12 ar  
    23    12    13 ar  
    24    12    36 1   
    25    13    14 ar  
    26    13    37 1   
    27    14    15 1   
    28    14    27 ar  
    29    15    16 2   
    30    15    17 1   
    31    17    18 1   
    32    17    38 1   
    33    18    19 ar  
    34    18    23 ar  
    35    19    20 ar  
    36    19    39 1   
    37    20    21 ar  
    38    20    40 1   
    39    21    22 ar  
    40    21    41 1   
    41    22    23 ar  
    42    22    42 1   
    43    23    24 1   
    44    24    25 1   
    45    24    26 1   
    46    27    43 1   
@<TRIPOS>SUBSTRUCTURE
     1 B82         1 TEMP              0 ****  ****    0 ROOT
