@<TRIPOS>MOLECULE
B83
   60    63     1     0     0
SMALL
abcg2


@<TRIPOS>ATOM
      1 C1          -5.3940     1.1250    -0.3700 ca         1 B83      -0.198600
      2 C2          -4.6000     0.1170     0.2250 ca         1 B83       0.003000
      3 C3          -5.2240    -0.9630     0.8600 ca         1 B83      -0.175000
      4 C4          -6.6060    -1.0460     0.9070 ca         1 B83      -0.106000
      5 C5          -7.3960    -0.0630     0.3290 ca         1 B83      -0.176000
      6 C6          -6.7790     1.0060    -0.3000 ca         1 B83      -0.063000
      7 C7          -4.8190     2.3410    -1.0890 c          1 B83       0.723600
      8 O8          -3.5630     2.4340    -1.1650 o          1 B83      -0.709500
      9 O9          -5.6220     3.1590    -1.5540 o          1 B83      -0.709500
     10 N10         -3.2180     0.2710     0.1520 ns         1 B83      -0.159000
     11 C11         -2.2360    -0.5470     0.5870 c          1 B83       0.613700
     12 O12         -2.4130    -1.6490     1.0900 o          1 B83      -0.643100
     13 C13         -0.8530    -0.0150     0.3970 ca         1 B83      -0.120600
     14 C14         -0.5580     1.3360     0.2860 ca         1 B83      -0.070000
     15 C15          0.7590     1.7540     0.1550 ca         1 B83      -0.150000
     16 C16          1.8180     0.8520     0.1000 ca         1 B83       0.256000
     17 C17          1.4980    -0.5210     0.1860 ca         1 B83       0.091100
     18 C18          0.1940    -0.9390     0.3610 ca         1 B83      -0.128000
     19 O19          2.5450    -1.3830     0.0640 os         1 B83      -0.256200
     20 C20          2.3140    -2.7350     0.1080 ca         1 B83       0.107100
     21 C21          1.9890    -3.4110    -1.0590 ca         1 B83      -0.116000
     22 C22          1.8080    -4.7870    -1.0160 ca         1 B83      -0.103000
     23 C23          1.9470    -5.4760     0.1820 ca         1 B83      -0.118000
     24 C24          2.2740    -4.7860     1.3410 ca         1 B83      -0.103000
     25 C25          2.4560    -3.4090     1.3110 ca         1 B83      -0.116000
     26 N26          3.1440     1.2430    -0.0800 nh         1 B83      -0.777400
     27 C27          3.3700     2.5500    -0.6710 c6         1 B83       0.201300
     28 C28          4.7930     2.6560    -1.2090 c6         1 B83      -0.068200
     29 C29          5.7950     2.3480    -0.1010 c6         1 B83      -0.067400
     30 C30          5.5020     1.0140     0.5780 c6         1 B83      -0.068200
     31 C31          4.0510     0.9830     1.0360 c6         1 B83       0.201300
     32 C32          6.4420     0.7600     1.7480 c3         1 B83      -0.085100
     33 C33          5.0360     4.0290    -1.8180 c3         1 B83      -0.085100
     34 H3          -4.6340    -1.7410     1.3150 ha         1 B83       0.129000
     35 H4          -7.0640    -1.8920     1.4030 ha         1 B83       0.085000
     36 H5          -8.4760    -0.1290     0.3670 ha         1 B83       0.089000
     37 H6          -7.3810     1.7800    -0.7550 ha         1 B83       0.127000
     38 HN10        -2.9950     1.1360    -0.3770 hn         1 B83       0.234000
     39 H14         -1.3320     2.0900     0.3370 ha         1 B83       0.154000
     40 H15          0.9590     2.8160     0.1030 ha         1 B83       0.115000
     41 H18         -0.0320    -1.9940     0.4410 ha         1 B83       0.142000
     42 H21          1.8820    -2.8680    -1.9900 ha         1 B83       0.127500
     43 H22          1.5560    -5.3200    -1.9240 ha         1 B83       0.110000
     44 H23          1.8070    -6.5480     0.2100 ha         1 B83       0.108000
     45 H24          2.3880    -5.3180     2.2770 ha         1 B83       0.110000
     46 H25          2.7140    -2.8660     2.2110 ha         1 B83       0.127500
     47 H27          2.6600     2.6940    -1.4880 h1         1 B83       0.036700
     48 H27A         3.1980     3.3630     0.0560 h1         1 B83       0.036700
     49 H28          4.9020     1.8980    -1.9930 hc         1 B83       0.062700
     50 H29          6.8130     2.3530    -0.5030 hc         1 B83       0.032200
     51 H29A         5.7530     3.1470     0.6510 hc         1 B83       0.032200
     52 H30          5.6300     0.2120    -0.1590 hc         1 B83       0.062700
     53 H31          3.9030     1.7390     1.8250 h1         1 B83       0.036700
     54 H31A         3.8240     0.0150     1.4780 h1         1 B83       0.036700
     55 H32          6.3370     1.5340     2.5110 hc         1 B83       0.030200
     56 H32A         6.2450    -0.2040     2.2210 hc         1 B83       0.030200
     57 H32B         7.4830     0.7610     1.4200 hc         1 B83       0.030200
     58 H33          4.9310     4.8160    -1.0680 hc         1 B83       0.030200
     59 H33A         6.0430     4.0990    -2.2310 hc         1 B83       0.030200
     60 H33B         4.3310     4.2430    -2.6240 hc         1 B83       0.030200
@<TRIPOS>BOND
     1     1     2 ar  
     2     1     6 ar  
     3     1     7 1   
     4     2     3 ar  
     5     2    10 1   
     6     3     4 ar  
     7     3    34 1   
     8     4     5 ar  
     9     4    35 1   
    10     5     6 ar  
    11     5    36 1   
    12     6    37 1   
    13     7     8 1   
    14     7     9 1   
    15    10    11 1   
    16    10    38 1   
    17    11    12 2   
    18    11    13 1   
    19    13    14 ar  
    20    13    18 ar  
    21    14    15 ar  
    22    14    39 1   
    23    15    16 ar  
    24    15    40 1   
    25    16    17 ar  
    26    16    26 1   
    27    17    18 ar  
    28    17    19 1   
    29    18    41 1   
    30    19    20 1   
    31    20    21 ar  
    32    20    25 ar  
    33    21    22 ar  
    34    21    42 1   
    35    22    23 ar  
    36    22    43 1   
    37    23    24 ar  
    38    23    44 1   
    39    24    25 ar  
    40    24    45 1   
    41    25    46 1   
    42    26    27 1   
    43    26    31 1   
    44    27    28 1   
    45    27    47 1   
    46    27    48 1   
    47    28    29 1   
    48    28    33 1   
    49    28    49 1   
    50    29    30 1   
    51    29    50 1   
    52    29    51 1   
    53    30    31 1   
    54    30    32 1   
    55    30    52 1   
    56    31    53 1   
    57    31    54 1   
    58    32    55 1   
    59    32    56 1   
    60    32    57 1   
    61    33    58 1   
    62    33    59 1   
    63    33    60 1   
@<TRIPOS>SUBSTRUCTURE
     1 B83         1 TEMP              0 ****  ****    0 ROOT
