@<TRIPOS>MOLECULE
B83
   60    63     1     0     0
SMALL
No Charge or Current Charge


@<TRIPOS>ATOM
      1 C1          -5.9040     1.4260    -0.3300 ca         1 B83      -0.198600
      2 C2          -5.2140     0.5160     0.5200 ca         1 B83       0.003000
      3 C3          -5.9570    -0.2910     1.4120 ca         1 B83      -0.175000
      4 C4          -7.3570    -0.2210     1.4520 ca         1 B83      -0.106000
      5 C5          -8.0370     0.6610     0.6040 ca         1 B83      -0.176000
      6 C6          -7.3170     1.4790    -0.2790 ca         1 B83      -0.063000
      7 C7          -5.1790     2.3370    -1.3040 c          1 B83       0.723600
      8 O8          -4.0810     2.7770    -0.9930 o          1 B83      -0.709500
      9 O9          -5.7340     2.6130    -2.3580 o          1 B83      -0.709500
     10 N10         -3.7930     0.4570     0.4660 ns         1 B83      -0.159000
     11 C11         -2.8720    -0.4830     0.9100 c          1 B83       0.613700
     12 O12         -3.2000    -1.5530     1.4160 o          1 B83      -0.643100
     13 C13         -1.4040    -0.1250     0.7200 ca         1 B83      -0.120600
     14 C14         -0.9870     1.1150     0.1780 ca         1 B83      -0.070000
     15 C15          0.3790     1.4080     0.0250 ca         1 B83      -0.150000
     16 C16          1.3730     0.4830     0.3990 ca         1 B83       0.256000
     17 C17          0.9590    -0.7690     0.9340 ca         1 B83       0.091100
     18 C18         -0.4070    -1.0550     1.0970 ca         1 B83      -0.128000
     19 O19          1.8620    -1.7420     1.3190 os         1 B83      -0.256200
     20 C20          2.7810    -2.3060     0.4580 ca         1 B83       0.107100
     21 C21          2.6350    -2.2310    -0.9440 ca         1 B83      -0.116000
     22 C22          3.5990    -2.8170    -1.7840 ca         1 B83      -0.103000
     23 C23          4.7030    -3.4860    -1.2280 ca         1 B83      -0.118000
     24 C24          4.8420    -3.5760     0.1680 ca         1 B83      -0.103000
     25 C25          3.8790    -2.9910     1.0080 ca         1 B83      -0.116000
     26 N26          2.7420     0.8290     0.2400 nh         1 B83      -0.777400
     27 C27          3.2130     1.5740    -0.9580 c6         1 B83       0.201300
     28 C28          4.6650     1.1740    -1.3320 c6         1 B83      -0.068200
     29 C29          5.6120     1.3640    -0.1180 c6         1 B83      -0.067400
     30 C30          5.0860     0.5730     1.1070 c6         1 B83      -0.068200
     31 C31          3.6200     0.9690     1.4320 c6         1 B83       0.201300
     32 C32          6.0090     0.7480     2.3410 c3         1 B83      -0.085100
     33 C33          5.1670     1.9540    -2.5760 c3         1 B83      -0.085100
     34 H3          -5.4610    -0.9730     2.0960 ha         1 B83       0.129000
     35 H4          -7.9150    -0.8490     2.1440 ha         1 B83       0.085000
     36 H5          -9.1220     0.7160     0.6330 ha         1 B83       0.089000
     37 H6          -7.8610     2.1650    -0.9250 ha         1 B83       0.127000
     38 HN10        -3.3830     1.2660     0.0160 hn         1 B83       0.234000
     39 H14         -1.7040     1.8750    -0.1220 ha         1 B83       0.154000
     40 H15          0.6650     2.3750    -0.3780 ha         1 B83       0.115000
     41 H18         -0.6890    -2.0180     1.5150 ha         1 B83       0.142000
     42 H21          1.7860    -1.7180    -1.3860 ha         1 B83       0.127500
     43 H22          3.4900    -2.7520    -2.8640 ha         1 B83       0.110000
     44 H23          5.4480    -3.9380    -1.8790 ha         1 B83       0.108000
     45 H24          5.6950    -4.0980     0.5970 ha         1 B83       0.110000
     46 H25          3.9880    -3.0570     2.0880 ha         1 B83       0.127500
     47 H27          2.5570     1.3610    -1.8160 h1         1 B83       0.036700
     48 H27A         3.1670     2.6570    -0.7680 h1         1 B83       0.036700
     49 H28          4.6660     0.1120    -1.6130 hc         1 B83       0.062700
     50 H29          6.6240     1.0250    -0.3760 hc         1 B83       0.032200
     51 H29A         5.6890     2.4320     0.1320 hc         1 B83       0.032200
     52 H30          5.1070    -0.4960     0.8590 hc         1 B83       0.062700
     53 H31          3.5940     2.0100     1.7880 h1         1 B83       0.036700
     54 H31A         3.2540     0.3360     2.2540 h1         1 B83       0.036700
     55 H32          6.0500     1.7950     2.6640 hc         1 B83       0.030200
     56 H32A         5.6520     0.1500     3.1880 hc         1 B83       0.030200
     57 H32B         7.0330     0.4260     2.1180 hc         1 B83       0.030200
     58 H33          5.1950     3.0340    -2.3850 hc         1 B83       0.030200
     59 H33A         6.1780     1.6380    -2.8590 hc         1 B83       0.030200
     60 H33B         4.5130     1.7840    -3.4390 hc         1 B83       0.030200
@<TRIPOS>BOND
     1     1     2 ar  
     2     1     6 ar  
     3     1     7 1   
     4     2     3 ar  
     5     2    10 1   
     6     3     4 ar  
     7     3    34 1   
     8     4     5 ar  
     9     4    35 1   
    10     5     6 ar  
    11     5    36 1   
    12     6    37 1   
    13     7     8 1   
    14     7     9 1   
    15    10    11 1   
    16    10    38 1   
    17    11    12 2   
    18    11    13 1   
    19    13    14 ar  
    20    13    18 ar  
    21    14    15 ar  
    22    14    39 1   
    23    15    16 ar  
    24    15    40 1   
    25    16    17 ar  
    26    16    26 1   
    27    17    18 ar  
    28    17    19 1   
    29    18    41 1   
    30    19    20 1   
    31    20    21 ar  
    32    20    25 ar  
    33    21    22 ar  
    34    21    42 1   
    35    22    23 ar  
    36    22    43 1   
    37    23    24 ar  
    38    23    44 1   
    39    24    25 ar  
    40    24    45 1   
    41    25    46 1   
    42    26    27 1   
    43    26    31 1   
    44    27    28 1   
    45    27    47 1   
    46    27    48 1   
    47    28    29 1   
    48    28    33 1   
    49    28    49 1   
    50    29    30 1   
    51    29    50 1   
    52    29    51 1   
    53    30    31 1   
    54    30    32 1   
    55    30    52 1   
    56    31    53 1   
    57    31    54 1   
    58    32    55 1   
    59    32    56 1   
    60    32    57 1   
    61    33    58 1   
    62    33    59 1   
    63    33    60 1   
@<TRIPOS>SUBSTRUCTURE
     1 B83         1 TEMP              0 ****  ****    0 ROOT
