@<TRIPOS>MOLECULE
B84
   70    74     1     0     0
SMALL
bcc


@<TRIPOS>ATOM
      1 S1          -5.4860     0.3320     0.2840 sy         1 B84       1.291200
      2 O2          -6.2510     0.9200    -0.8030 o          1 B84      -0.605800
      3 O3          -5.9500     0.4850     1.6530 o          1 B84      -0.605800
      4 N4          -5.3880    -1.2920    -0.0130 n3         1 B84      -0.709500
      5 C5          -4.6920    -2.1010     0.9900 c6         1 B84       0.187300
      6 C8          -5.0260    -3.5630     0.7600 c6         1 B84       0.164800
      7 N11         -4.6650    -3.9680    -0.5810 n3         1 B84      -0.717600
      8 C12         -5.3730    -3.1630    -1.5540 c6         1 B84       0.164800
      9 C15         -5.0450    -1.6930    -1.3790 c6         1 B84       0.187300
     10 C18         -4.8840    -5.3810    -0.7910 c3         1 B84       0.154100
     11 C22         -3.8280     0.9430     0.1860 ca         1 B84      -0.299500
     12 C23         -3.3050     1.3020    -1.0480 ca         1 B84      -0.036000
     13 C25         -1.9760     1.6890    -1.1310 ca         1 B84      -0.129500
     14 C27         -1.1680     1.7270     0.0000 ca         1 B84      -0.026300
     15 C28         -1.7190     1.3840     1.2330 ca         1 B84      -0.129500
     16 C30         -3.0420     0.9890     1.3320 ca         1 B84      -0.036000
     17 C32          0.2750     2.1390    -0.1260 c3         1 B84      -0.093400
     18 C34          0.6680     3.2740     0.8390 c3         1 B84      -0.060400
     19 C37         -0.1330     4.5490     0.6180 c5         1 B84      -0.071700
     20 C39          0.3090     5.6930     1.5640 c5         1 B84      -0.077400
     21 C42          0.4030     6.9620     0.6950 c5         1 B84      -0.079400
     22 C45         -0.3430     6.6130    -0.5930 c5         1 B84      -0.079400
     23 C48         -0.0130     5.1380    -0.7920 c5         1 B84      -0.077400
     24 C51          1.1940     0.9570     0.1130 c          1 B84       0.676100
     25 O52          0.9850     0.0830     0.9290 o          1 B84      -0.557100
     26 N53          2.3320     0.9670    -0.6390 ns         1 B84      -0.469400
     27 C55          3.3470     0.0500    -0.5440 cc         1 B84       0.419800
     28 S56          3.2720    -1.2910     0.5770 ss         1 B84      -0.060500
     29 C57          4.8350    -1.7790    -0.0210 ca         1 B84       0.431600
     30 N58          5.5020    -2.8400     0.4060 nb         1 B84      -0.717000
     31 C59          6.6700    -3.0580    -0.1570 ca         1 B84       0.653600
     32 C60          7.2180    -2.2330    -1.1610 ca         1 B84      -0.261300
     33 C62          6.5070    -1.1380    -1.5880 ca         1 B84      -0.020000
     34 C64          5.2620    -0.8890    -1.0030 ca         1 B84      -0.029900
     35 N65          4.3990     0.1390    -1.2810 nd         1 B84      -0.586100
     36 O66          7.4000    -4.1080     0.2190 os         1 B84      -0.434100
     37 C67          6.8790    -4.9570     1.2320 c3         1 B84       0.134700
     38 H5          -3.6060    -1.9600     0.9220 h1         1 B84       0.062200
     39 H5A         -5.0150    -1.8140     1.9880 h1         1 B84       0.062200
     40 H8          -4.4600    -4.1560     1.4810 h1         1 B84       0.044450
     41 H8A         -6.0970    -3.7280     0.9690 h1         1 B84       0.044450
     42 H12         -5.0690    -3.4620    -2.5590 h1         1 B84       0.044450
     43 H12A        -6.4660    -3.2990    -1.4890 h1         1 B84       0.044450
     44 H15         -5.6250    -1.1130    -2.0940 h1         1 B84       0.062200
     45 H15A        -3.9790    -1.5270    -1.5800 h1         1 B84       0.062200
     46 H18         -5.9370    -5.6800    -0.6720 h1         1 B84       0.033700
     47 H18A        -4.5690    -5.6610    -1.7970 h1         1 B84       0.033700
     48 H18B        -4.2910    -5.9590    -0.0820 h1         1 B84       0.033700
     49 H23         -3.9160     1.2890    -1.9400 ha         1 B84       0.154500
     50 H25         -1.5690     1.9640    -2.0960 ha         1 B84       0.140500
     51 H28         -1.1220     1.4290     2.1330 ha         1 B84       0.140500
     52 H30         -3.4500     0.7290     2.2990 ha         1 B84       0.154500
     53 H32          0.4420     2.4930    -1.1470 hc         1 B84       0.068700
     54 H34          0.5550     2.9330     1.8720 hc         1 B84       0.054200
     55 H34A         1.7320     3.4970     0.7030 hc         1 B84       0.054200
     56 H37         -1.1900     4.3340     0.8060 hc         1 B84       0.058700
     57 H39         -0.4110     5.8150     2.3750 hc         1 B84       0.041700
     58 H39A         1.2700     5.4660     2.0320 hc         1 B84       0.041700
     59 H42          0.0000     7.8450     1.1940 hc         1 B84       0.044700
     60 H42A         1.4480     7.1790     0.4610 hc         1 B84       0.044700
     61 H45         -1.4210     6.7340    -0.4530 hc         1 B84       0.044700
     62 H45A        -0.0520     7.2380    -1.4390 hc         1 B84       0.044700
     63 H48          1.0160     5.0340    -1.1560 hc         1 B84       0.041700
     64 H48A        -0.6640     4.6500    -1.5200 hc         1 B84       0.041700
     65 HN53         2.4710     1.6910    -1.3300 hn         1 B84       0.341500
     66 H60          8.1860    -2.4690    -1.5810 ha         1 B84       0.159000
     67 H62          6.9000    -0.4850    -2.3560 ha         1 B84       0.155000
     68 H67          6.7290    -4.4220     2.1700 h1         1 B84       0.048367
     69 H67A         5.9340    -5.4120     0.9320 h1         1 B84       0.048367
     70 H67B         7.6220    -5.7370     1.3780 h1         1 B84       0.048367
@<TRIPOS>BOND
     1     1     2 2   
     2     1     3 2   
     3     1     4 1   
     4     1    11 1   
     5     4     5 1   
     6     4     9 1   
     7     5     6 1   
     8     5    38 1   
     9     5    39 1   
    10     6     7 1   
    11     6    40 1   
    12     6    41 1   
    13     7     8 1   
    14     7    10 1   
    15     8     9 1   
    16     8    42 1   
    17     8    43 1   
    18     9    44 1   
    19     9    45 1   
    20    10    46 1   
    21    10    47 1   
    22    10    48 1   
    23    11    12 ar  
    24    11    16 ar  
    25    12    13 ar  
    26    12    49 1   
    27    13    14 ar  
    28    13    50 1   
    29    14    15 ar  
    30    14    17 1   
    31    15    16 ar  
    32    15    51 1   
    33    16    52 1   
    34    17    18 1   
    35    17    24 1   
    36    17    53 1   
    37    18    19 1   
    38    18    54 1   
    39    18    55 1   
    40    19    20 1   
    41    19    23 1   
    42    19    56 1   
    43    20    21 1   
    44    20    57 1   
    45    20    58 1   
    46    21    22 1   
    47    21    59 1   
    48    21    60 1   
    49    22    23 1   
    50    22    61 1   
    51    22    62 1   
    52    23    63 1   
    53    23    64 1   
    54    24    25 2   
    55    24    26 1   
    56    26    27 1   
    57    26    65 1   
    58    27    28 1   
    59    27    35 2   
    60    28    29 1   
    61    29    30 ar  
    62    29    34 ar  
    63    30    31 ar  
    64    31    32 ar  
    65    31    36 1   
    66    32    33 ar  
    67    32    66 1   
    68    33    34 ar  
    69    33    67 1   
    70    34    35 1   
    71    36    37 1   
    72    37    68 1   
    73    37    69 1   
    74    37    70 1   
@<TRIPOS>SUBSTRUCTURE
     1 B84         1 TEMP              0 ****  ****    0 ROOT
