@<TRIPOS>MOLECULE
B84
   70    74     1     0     0
SMALL
No Charge or Current Charge


@<TRIPOS>ATOM
      1 S1          -5.4390     0.5440    -0.1600 sy         1 B84       1.149600
      2 O2          -6.0170     0.9980    -1.4300 o          1 B84      -0.535000
      3 O3          -6.1200     0.8200     1.1110 o          1 B84      -0.535000
      4 N4          -5.3240    -1.1530    -0.2730 n3         1 B84      -0.709500
      5 C5          -4.7270    -1.8230     0.9200 c6         1 B84       0.187300
      6 C8          -4.7890    -3.3780     0.8150 c6         1 B84       0.164800
      7 N11         -4.1400    -3.8860    -0.4310 n3         1 B84      -0.717600
      8 C12         -4.7320    -3.2120    -1.6270 c6         1 B84       0.164800
      9 C15         -4.6700    -1.6570    -1.5180 c6         1 B84       0.187300
     10 C18         -4.1680    -5.3610    -0.5320 c3         1 B84       0.154100
     11 C22         -3.7150     1.0680    -0.0550 ca         1 B84      -0.299500
     12 C23         -2.9880     1.3550    -1.2270 ca         1 B84      -0.018000
     13 C25         -1.6450     1.7570    -1.1420 ca         1 B84      -0.111500
     14 C27         -1.0100     1.8850     0.1100 ca         1 B84      -0.026300
     15 C28         -1.7450     1.6020     1.2790 ca         1 B84      -0.111500
     16 C30         -3.0890     1.1990     1.2010 ca         1 B84      -0.018000
     17 C32          0.4550     2.3300     0.1820 c3         1 B84      -0.093400
     18 C34          0.6800     3.5580     1.1110 c3         1 B84      -0.060400
     19 C37         -0.1790     4.8050     0.7720 c5         1 B84      -0.071700
     20 C39          0.1230     6.0390     1.6570 c5         1 B84      -0.077400
     21 C42         -0.7380     7.1360     0.9730 c5         1 B84      -0.079400
     22 C45         -0.7220     6.7610    -0.5450 c5         1 B84      -0.079400
     23 C48          0.0830     5.4310    -0.6220 c5         1 B84      -0.077400
     24 C51          1.3610     1.1460     0.5860 c          1 B84       0.609100
     25 O52          1.2780     0.6070     1.6800 o          1 B84      -0.557100
     26 N53          2.2540     0.7480    -0.3830 ns         1 B84      -0.402400
     27 C55          3.1780    -0.2690    -0.3520 cc         1 B84       0.419800
     28 S56          3.4560    -1.3720     1.0250 ss         1 B84      -0.060500
     29 C57          4.6830    -2.1150     0.0220 ca         1 B84       0.366300
     30 N58          5.4340    -3.1630     0.4260 nb         1 B84      -0.717000
     31 C59          6.3440    -3.6310    -0.4600 ca         1 B84       0.588300
     32 C60          6.5120    -3.0680    -1.7400 ca         1 B84      -0.178000
     33 C62          5.7160    -1.9760    -2.1350 ca         1 B84      -0.002000
     34 C64          4.7750    -1.4950    -1.2130 ca         1 B84       0.035400
     35 N65          3.9160    -0.4270    -1.4520 nd         1 B84      -0.586100
     36 O66          7.1450    -4.6960    -0.1200 os         1 B84      -0.457300
     37 C67          7.0370    -5.3300     1.1700 c3         1 B84       0.157900
     38 H5          -3.6740    -1.5300     1.0400 h1         1 B84       0.062200
     39 H5A         -5.2520    -1.5230     1.8390 h1         1 B84       0.062200
     40 H8          -4.3030    -3.8090     1.7010 h1         1 B84       0.044450
     41 H8A         -5.8450    -3.6870     0.8450 h1         1 B84       0.044450
     42 H12         -4.2020    -3.5210    -2.5390 h1         1 B84       0.044450
     43 H12A        -5.7840    -3.5110    -1.7480 h1         1 B84       0.044450
     44 H15         -5.1530    -1.2350    -2.4110 h1         1 B84       0.062200
     45 H15A        -3.6140    -1.3520    -1.5480 h1         1 B84       0.062200
     46 H18         -5.2010    -5.7320    -0.5820 h1         1 B84       0.033700
     47 H18A        -3.6380    -5.6970    -1.4330 h1         1 B84       0.033700
     48 H18B        -3.6800    -5.8180     0.3390 h1         1 B84       0.033700
     49 H23         -3.4570     1.2660    -2.2060 ha         1 B84       0.136500
     50 H25         -1.0990     1.9730    -2.0580 ha         1 B84       0.122500
     51 H28         -1.2770     1.6900     2.2560 ha         1 B84       0.122500
     52 H30         -3.6350     0.9870     2.1190 ha         1 B84       0.136500
     53 H32          0.7650     2.6430    -0.8220 hc         1 B84       0.068700
     54 H34          0.4880     3.2640     2.1510 hc         1 B84       0.054200
     55 H34A         1.7420     3.8290     1.0720 hc         1 B84       0.054200
     56 H37         -1.2320     4.5120     0.8760 hc         1 B84       0.058700
     57 H39         -0.1600     5.8840     2.7040 hc         1 B84       0.041700
     58 H39A         1.1890     6.2990     1.6430 hc         1 B84       0.041700
     59 H42         -1.7640     7.1260     1.3610 hc         1 B84       0.044700
     60 H42A        -0.3380     8.1400     1.1560 hc         1 B84       0.044700
     61 H45         -1.7430     6.6250    -0.9200 hc         1 B84       0.044700
     62 H45A        -0.2610     7.5440    -1.1580 hc         1 B84       0.044700
     63 H48          1.1510     5.6200    -0.7850 hc         1 B84       0.041700
     64 H48A        -0.2630     4.7930    -1.4430 hc         1 B84       0.041700
     65 HN53         2.2190     1.2780    -1.2410 hn         1 B84       0.341500
     66 H60          7.2560    -3.4810    -2.4130 ha         1 B84       0.141000
     67 H62          5.8240    -1.5220    -3.1170 ha         1 B84       0.137000
     68 H67          7.2480    -4.6160     1.9770 h1         1 B84       0.048367
     69 H67A         6.0310    -5.7410     1.3220 h1         1 B84       0.048367
     70 H67B         7.7560    -6.1550     1.2510 h1         1 B84       0.048367
@<TRIPOS>BOND
     1     1     2 2   
     2     1     3 2   
     3     1     4 1   
     4     1    11 1   
     5     4     5 1   
     6     4     9 1   
     7     5     6 1   
     8     5    38 1   
     9     5    39 1   
    10     6     7 1   
    11     6    40 1   
    12     6    41 1   
    13     7     8 1   
    14     7    10 1   
    15     8     9 1   
    16     8    42 1   
    17     8    43 1   
    18     9    44 1   
    19     9    45 1   
    20    10    46 1   
    21    10    47 1   
    22    10    48 1   
    23    11    12 ar  
    24    11    16 ar  
    25    12    13 ar  
    26    12    49 1   
    27    13    14 ar  
    28    13    50 1   
    29    14    15 ar  
    30    14    17 1   
    31    15    16 ar  
    32    15    51 1   
    33    16    52 1   
    34    17    18 1   
    35    17    24 1   
    36    17    53 1   
    37    18    19 1   
    38    18    54 1   
    39    18    55 1   
    40    19    20 1   
    41    19    23 1   
    42    19    56 1   
    43    20    21 1   
    44    20    57 1   
    45    20    58 1   
    46    21    22 1   
    47    21    59 1   
    48    21    60 1   
    49    22    23 1   
    50    22    61 1   
    51    22    62 1   
    52    23    63 1   
    53    23    64 1   
    54    24    25 2   
    55    24    26 1   
    56    26    27 1   
    57    26    65 1   
    58    27    28 1   
    59    27    35 2   
    60    28    29 1   
    61    29    30 ar  
    62    29    34 ar  
    63    30    31 ar  
    64    31    32 ar  
    65    31    36 1   
    66    32    33 ar  
    67    32    66 1   
    68    33    34 ar  
    69    33    67 1   
    70    34    35 1   
    71    36    37 1   
    72    37    68 1   
    73    37    69 1   
    74    37    70 1   
@<TRIPOS>SUBSTRUCTURE
     1 B84         1 TEMP              0 ****  ****    0 ROOT
