@<TRIPOS>MOLECULE
B86
   29    30     1     0     0
SMALL
bcc


@<TRIPOS>ATOM
      1 C1           3.0620    -0.6650    -0.4060 cc         1 B86       0.775500
      2 N2           2.0040    -0.9900    -1.1140 nd         1 B86      -0.768100
      3 C3           0.7800    -0.4730    -0.8580 c          1 B86       0.865900
      4 N4           0.6570     0.4490     0.1900 n          1 B86      -0.384000
      5 C5           1.7380     0.7850     0.9410 cd         1 B86       0.039600
      6 C6           2.9420     0.2590     0.6750 cc         1 B86      -0.148100
      7 N7           4.2430    -1.2000    -0.7000 nv         1 B86      -0.917800
      8 F8           4.0270     0.5790     1.3970 f          1 B86      -0.164500
      9 O9          -0.2060    -0.7810    -1.5100 o          1 B86      -0.622500
     10 C10         -0.6390     1.0300     0.5310 c5         1 B86       0.321500
     11 O11         -1.4860     0.0250     1.0100 os         1 B86      -0.387600
     12 C12         -2.7770     0.1190     0.4310 c5         1 B86       0.151100
     13 C13         -2.6200     0.9100    -0.8680 c5         1 B86       0.116100
     14 O13         -3.7940     1.6550    -1.0880 oh         1 B86      -0.591800
     15 C14         -1.3710     1.7510    -0.6050 c5         1 B86      -0.145400
     16 C15         -3.3470    -1.2590     0.2080 c3         1 B86       0.137400
     17 O16         -3.5690    -1.8830     1.4510 oh         1 B86      -0.589800
     18 H5           1.5920     1.4920     1.7470 h4         1 B86       0.167000
     19 HN7          4.3190    -1.8410    -1.4720 hn         1 B86       0.454800
     20 HN7A         5.0780    -0.9810    -0.1860 hn         1 B86       0.454800
     21 H10         -0.4190     1.7420     1.3310 h2         1 B86       0.055700
     22 H12         -3.4400     0.6850     1.1040 h1         1 B86       0.073700
     23 H13         -2.4390     0.2250    -1.7000 h1         1 B86       0.075700
     24 HO13        -3.7740     1.9870    -1.9900 ho         1 B86       0.411000
     25 H14         -1.6760     2.7360    -0.2470 hc         1 B86       0.070200
     26 H14A        -0.7510     1.8970    -1.4870 hc         1 B86       0.070200
     27 H15         -4.2800    -1.1440    -0.3600 h1         1 B86       0.038200
     28 H15A        -2.6510    -1.8300    -0.4200 h1         1 B86       0.038200
     29 HO16        -3.9520    -2.7490     1.2850 ho         1 B86       0.404000
@<TRIPOS>BOND
     1     1     2 2   
     2     1     6 1   
     3     1     7 1   
     4     2     3 1   
     5     3     4 1   
     6     3     9 2   
     7     4     5 1   
     8     4    10 1   
     9     5     6 2   
    10     5    18 1   
    11     6     8 1   
    12     7    19 1   
    13     7    20 1   
    14    10    11 1   
    15    10    15 1   
    16    10    21 1   
    17    11    12 1   
    18    12    13 1   
    19    12    16 1   
    20    12    22 1   
    21    13    14 1   
    22    13    15 1   
    23    13    23 1   
    24    14    24 1   
    25    15    25 1   
    26    15    26 1   
    27    16    17 1   
    28    16    27 1   
    29    16    28 1   
    30    17    29 1   
@<TRIPOS>SUBSTRUCTURE
     1 B86         1 TEMP              0 ****  ****    0 ROOT
