@<TRIPOS>MOLECULE
B86
   29    30     1     0     0
SMALL
No Charge or Current Charge


@<TRIPOS>ATOM
      1 C1           3.2240    -0.5490    -0.3980 cc         1 B86       0.775500
      2 N2           2.2410    -1.1540    -0.9800 nd         1 B86      -0.768100
      3 C3           0.9300    -0.7730    -0.6750 c          1 B86       0.723400
      4 N4           0.7240     0.2680     0.2690 n          1 B86      -0.317000
      5 C5           1.8110     0.9130     0.8670 cd         1 B86      -0.010400
      6 C6           3.0870     0.5180     0.5460 cc         1 B86      -0.148100
      7 N7           4.4250    -0.9860    -0.7640 nv         1 B86      -1.028200
      8 F8           4.1640     1.1100     1.0980 f          1 B86      -0.164500
      9 O9           0.0310    -1.3430    -1.2690 o          1 B86      -0.547000
     10 C10         -0.6480     0.6620     0.6860 c5         1 B86       0.344700
     11 O11         -1.5460    -0.4500     0.8330 os         1 B86      -0.434000
     12 C12         -2.8440     0.0210     0.4130 c5         1 B86       0.174300
     13 C13         -2.4940     0.8030    -0.8880 c5         1 B86       0.139300
     14 O13         -3.5410     1.6750    -1.3300 oh         1 B86      -0.714000
     15 C14         -1.2440     1.5970    -0.4140 c5         1 B86      -0.145400
     16 C15         -3.8290    -1.1650     0.2150 c3         1 B86       0.160600
     17 O16         -4.2260    -1.7440     1.4760 oh         1 B86      -0.712000
     18 H5           1.5650     1.7050     1.5700 h4         1 B86       0.217000
     19 HN7          4.4160    -1.4970    -1.6360 hn         1 B86       0.510000
     20 HN7A         5.1850    -0.3300    -0.6390 hn         1 B86       0.510000
     21 H10         -0.5640     1.1970     1.6410 h2         1 B86       0.055700
     22 H12         -3.2480     0.6980     1.1790 h1         1 B86       0.073700
     23 H13         -2.2210     0.0920    -1.6820 h1         1 B86       0.075700
     24 HO13        -3.2180     2.1290    -2.1440 ho         1 B86       0.510000
     25 H14         -1.5170     2.5630     0.0260 hc         1 B86       0.070200
     26 H14A        -0.5500     1.8040    -1.2370 hc         1 B86       0.070200
     27 H15         -4.7130    -0.7950    -0.3210 h1         1 B86       0.038200
     28 H15A        -3.3490    -1.9200    -0.4230 h1         1 B86       0.038200
     29 HO16        -4.7990    -2.5190     1.2700 ho         1 B86       0.503000
@<TRIPOS>BOND
     1     1     2 2   
     2     1     6 1   
     3     1     7 1   
     4     2     3 1   
     5     3     4 1   
     6     3     9 2   
     7     4     5 1   
     8     4    10 1   
     9     5     6 2   
    10     5    18 1   
    11     6     8 1   
    12     7    19 1   
    13     7    20 1   
    14    10    11 1   
    15    10    15 1   
    16    10    21 1   
    17    11    12 1   
    18    12    13 1   
    19    12    16 1   
    20    12    22 1   
    21    13    14 1   
    22    13    15 1   
    23    13    23 1   
    24    14    24 1   
    25    15    25 1   
    26    15    26 1   
    27    16    17 1   
    28    16    27 1   
    29    16    28 1   
    30    17    29 1   
@<TRIPOS>SUBSTRUCTURE
     1 B86         1 TEMP              0 ****  ****    0 ROOT
