@<TRIPOS>MOLECULE
B87
   54    58     1     0     0
SMALL
No Charge or Current Charge


@<TRIPOS>ATOM
      1 C1           9.1050     1.9960    -0.1000 c5         1 B87      -0.094400
      2 C2           7.7860     2.0630    -0.9130 c5         1 B87       0.102500
      3 N3           6.9180     1.1420    -0.1490 n          1 B87      -0.425800
      4 C4           7.4590     0.8050     1.1860 c5         1 B87       0.102500
      5 C5           8.5740     1.8690     1.3490 c5         1 B87      -0.094400
      6 C6           5.7110     0.6240    -0.6690 c          1 B87       0.603100
      7 O7           5.3430     0.9480    -1.7950 o          1 B87      -0.588100
      8 C8           4.8970    -0.3660     0.2340 c3         1 B87       0.090800
      9 N9           3.5720    -0.8830    -0.2480 n3         1 B87      -0.695600
     10 C10          3.0550    -2.0060     0.5920 c6         1 B87       0.146300
     11 C11          1.7070    -2.5940     0.0650 c6         1 B87       0.224300
     12 N12          0.6530    -1.5390    -0.1350 nh         1 B87      -0.782300
     13 C13          1.1660    -0.3570    -0.9060 c6         1 B87       0.224300
     14 C14          2.5240     0.1810    -0.3530 c6         1 B87       0.146300
     15 C15         -0.7170    -1.8810    -0.1930 ca         1 B87       0.405900
     16 C16         -1.7210    -0.9090    -0.0700 ca         1 B87      -0.288000
     17 C17         -3.0660    -1.3220    -0.1300 ca         1 B87       0.230800
     18 N18         -3.3680    -2.6290    -0.2960 nb         1 B87      -0.224000
     19 C19         -2.3370    -3.4900    -0.3940 ca         1 B87       0.169900
     20 N20         -1.0280    -3.1820    -0.3470 nb         1 B87      -0.279000
     21 C21         -4.1590    -0.3470    -0.0070 cc         1 B87      -0.136200
     22 S22         -3.9610     1.4150     0.2100 ss         1 B87       0.052400
     23 C23         -5.7420     1.5790     0.2300 ca         1 B87      -0.151000
     24 C24         -6.4150     0.3820     0.0820 ca         1 B87      -0.086800
     25 C25         -5.4930    -0.7200    -0.0540 cd         1 B87      -0.114200
     26 C26         -6.4450     2.7850     0.3780 ca         1 B87      -0.085000
     27 C27         -7.8540     2.7540     0.3740 ca         1 B87      -0.096000
     28 C28         -8.5390     1.5270     0.2230 ca         1 B87      -0.118000
     29 C29         -7.8170     0.3260     0.0750 ca         1 B87      -0.063000
     30 H1           9.6970     1.1170    -0.3830 hc         1 B87       0.054700
     31 H1A          9.7350     2.8800    -0.2490 hc         1 B87       0.054700
     32 H2           7.3640     3.0770    -0.9150 h1         1 B87       0.049950
     33 H2A          7.9300     1.7420    -1.9530 h1         1 B87       0.049950
     34 H4           6.7080     0.8860     1.9830 h1         1 B87       0.049950
     35 H4A          7.8700    -0.2140     1.1910 h1         1 B87       0.049950
     36 H5           9.3470     1.5610     2.0610 hc         1 B87       0.054700
     37 H5A          8.1620     2.8220     1.7030 hc         1 B87       0.054700
     38 H8           5.5690    -1.2140     0.4150 h1         1 B87       0.047200
     39 H8A          4.7550     0.1310     1.2030 h1         1 B87       0.047200
     40 H10          3.7930    -2.8200     0.6350 h1         1 B87       0.044200
     41 H10A         2.9020    -1.6610     1.6250 h1         1 B87       0.044200
     42 H11          1.8980    -3.1150    -0.8840 h1         1 B87       0.066200
     43 H11A         1.3660    -3.3490     0.7890 h1         1 B87       0.066200
     44 H13          1.3080    -0.6390    -1.9600 h1         1 B87       0.066200
     45 H13A         0.4470     0.4730    -0.8940 h1         1 B87       0.066200
     46 H14          2.3410     0.6260     0.6360 h1         1 B87       0.044200
     47 H14A         2.8600     0.9950    -1.0090 h1         1 B87       0.044200
     48 H16         -1.4670     0.1310     0.0860 ha         1 B87       0.132000
     49 H19         -2.5890    -4.5410    -0.5240 h5         1 B87       0.043100
     50 H25         -5.8270    -1.7470    -0.1810 ha         1 B87       0.224000
     51 H26         -5.9130     3.7270     0.4940 ha         1 B87       0.121000
     52 H27         -8.4160     3.6780     0.4880 ha         1 B87       0.113000
     53 H28         -9.6270     1.5100     0.2200 ha         1 B87       0.115000
     54 H29         -8.3360    -0.6230    -0.0420 ha         1 B87       0.119000
@<TRIPOS>BOND
     1     1     2 1   
     2     1     5 1   
     3     1    30 1   
     4     1    31 1   
     5     2     3 1   
     6     2    32 1   
     7     2    33 1   
     8     3     4 1   
     9     3     6 1   
    10     4     5 1   
    11     4    34 1   
    12     4    35 1   
    13     5    36 1   
    14     5    37 1   
    15     6     7 2   
    16     6     8 1   
    17     8     9 1   
    18     8    38 1   
    19     8    39 1   
    20     9    10 1   
    21     9    14 1   
    22    10    11 1   
    23    10    40 1   
    24    10    41 1   
    25    11    12 1   
    26    11    42 1   
    27    11    43 1   
    28    12    13 1   
    29    12    15 1   
    30    13    14 1   
    31    13    44 1   
    32    13    45 1   
    33    14    46 1   
    34    14    47 1   
    35    15    16 ar  
    36    15    20 ar  
    37    16    17 ar  
    38    16    48 1   
    39    17    18 ar  
    40    17    21 1   
    41    18    19 ar  
    42    19    20 ar  
    43    19    49 1   
    44    21    22 1   
    45    21    25 2   
    46    22    23 1   
    47    23    24 ar  
    48    23    26 ar  
    49    24    25 1   
    50    24    29 ar  
    51    25    50 1   
    52    26    27 ar  
    53    26    51 1   
    54    27    28 ar  
    55    27    52 1   
    56    28    29 ar  
    57    28    53 1   
    58    29    54 1   
@<TRIPOS>SUBSTRUCTURE
     1 B87         1 TEMP              0 ****  ****    0 ROOT
