@<TRIPOS>MOLECULE
B87
   54    58     1     0     0
SMALL
bcc


@<TRIPOS>ATOM
      1 C1           8.7430     1.9980     0.1400 c5         1 B87      -0.094400
      2 C2           7.4780     2.0360    -0.7080 c5         1 B87       0.102500
      3 N3           6.5680     1.1410     0.0010 n          1 B87      -0.492800
      4 C4           7.0620     0.7840     1.3290 c5         1 B87       0.102500
      5 C5           8.2140     1.7570     1.5500 c5         1 B87      -0.094400
      6 C6           5.4680     0.6460    -0.5890 c          1 B87       0.670100
      7 O7           5.1360     0.9700    -1.7220 o          1 B87      -0.588100
      8 C8           4.6800    -0.3580     0.2400 c3         1 B87       0.090800
      9 N9           3.4810    -0.8090    -0.4170 n3         1 B87      -0.695600
     10 C10          3.0110    -2.0660     0.1340 c6         1 B87       0.146300
     11 C11          1.8060    -2.5760    -0.6370 c6         1 B87       0.224300
     12 N12          0.7540    -1.5770    -0.6470 nh         1 B87      -0.782300
     13 C13          1.2040    -0.2910    -1.1410 c6         1 B87       0.224300
     14 C14          2.4230     0.1820    -0.3690 c6         1 B87       0.146300
     15 C15         -0.5220    -1.8690    -0.3340 ca         1 B87       0.734200
     16 C16         -1.5620    -0.9110    -0.3520 ca         1 B87      -0.436600
     17 C17         -2.8250    -1.3310     0.0020 ca         1 B87       0.559100
     18 N18         -3.0900    -2.6030     0.3460 nb         1 B87      -0.750000
     19 C19         -2.0540    -3.4160     0.3300 ca         1 B87       0.695900
     20 N20         -0.8050    -3.1320     0.0150 nb         1 B87      -0.805000
     21 C21         -3.9660    -0.4170     0.0310 cc         1 B87      -0.136200
     22 S22         -3.7940     1.2700    -0.3780 ss         1 B87      -0.074500
     23 C23         -5.4760     1.5560    -0.0840 ca         1 B87      -0.024100
     24 C24         -6.1330     0.3780     0.3130 ca         1 B87      -0.086800
     25 C25         -5.2420    -0.7360     0.3700 cd         1 B87      -0.064200
     26 C26         -6.1520     2.7680    -0.2040 ca         1 B87      -0.103000
     27 C27         -7.5040     2.7870     0.0790 ca         1 B87      -0.114000
     28 C28         -8.1770     1.6230     0.4750 ca         1 B87      -0.136000
     29 C29         -7.5050     0.4250     0.5930 ca         1 B87      -0.081000
     30 H1           9.3790     1.1650    -0.1710 hc         1 B87       0.054700
     31 H1A          9.3280     2.9130     0.0520 hc         1 B87       0.054700
     32 H2           7.0600     3.0460    -0.7590 h1         1 B87       0.049950
     33 H2A          7.6450     1.6950    -1.7300 h1         1 B87       0.049950
     34 H4           6.2880     0.8900     2.0900 h1         1 B87       0.049950
     35 H4A          7.4110    -0.2520     1.3500 h1         1 B87       0.049950
     36 H5           8.9640     1.3540     2.2290 hc         1 B87       0.054700
     37 H5A          7.8410     2.6900     1.9790 hc         1 B87       0.054700
     38 H8           5.3320    -1.2210     0.4170 h1         1 B87       0.047200
     39 H8A          4.4730     0.0640     1.2380 h1         1 B87       0.047200
     40 H10          3.8070    -2.8110     0.0610 h1         1 B87       0.044200
     41 H10A         2.7430    -1.9790     1.2010 h1         1 B87       0.044200
     42 H11          2.1000    -2.8040    -1.6680 h1         1 B87       0.066200
     43 H11A         1.4390    -3.4910    -0.1830 h1         1 B87       0.066200
     44 H13          1.4540    -0.3800    -2.2040 h1         1 B87       0.066200
     45 H13A         0.4270     0.4610    -1.0540 h1         1 B87       0.066200
     46 H14          2.1260     0.4060     0.6690 h1         1 B87       0.044200
     47 H14A         2.7670     1.1130    -0.8190 h1         1 B87       0.044200
     48 H16         -1.3810     0.1190    -0.6210 ha         1 B87       0.150000
     49 H19         -2.2490    -4.4480     0.6060 h5         1 B87       0.043100
     50 H25         -5.5430    -1.7340     0.6540 ha         1 B87       0.174000
     51 H26         -5.6360     3.6690    -0.5090 ha         1 B87       0.139000
     52 H27         -8.0510     3.7170    -0.0050 ha         1 B87       0.131000
     53 H28         -9.2370     1.6690     0.6870 ha         1 B87       0.133000
     54 H29         -8.0240    -0.4740     0.8980 ha         1 B87       0.137000
@<TRIPOS>BOND
     1     1     2 1   
     2     1     5 1   
     3     1    30 1   
     4     1    31 1   
     5     2     3 1   
     6     2    32 1   
     7     2    33 1   
     8     3     4 1   
     9     3     6 1   
    10     4     5 1   
    11     4    34 1   
    12     4    35 1   
    13     5    36 1   
    14     5    37 1   
    15     6     7 2   
    16     6     8 1   
    17     8     9 1   
    18     8    38 1   
    19     8    39 1   
    20     9    10 1   
    21     9    14 1   
    22    10    11 1   
    23    10    40 1   
    24    10    41 1   
    25    11    12 1   
    26    11    42 1   
    27    11    43 1   
    28    12    13 1   
    29    12    15 1   
    30    13    14 1   
    31    13    44 1   
    32    13    45 1   
    33    14    46 1   
    34    14    47 1   
    35    15    16 ar  
    36    15    20 ar  
    37    16    17 ar  
    38    16    48 1   
    39    17    18 ar  
    40    17    21 1   
    41    18    19 ar  
    42    19    20 ar  
    43    19    49 1   
    44    21    22 1   
    45    21    25 2   
    46    22    23 1   
    47    23    24 ar  
    48    23    26 ar  
    49    24    25 1   
    50    24    29 ar  
    51    25    50 1   
    52    26    27 ar  
    53    26    51 1   
    54    27    28 ar  
    55    27    52 1   
    56    28    29 ar  
    57    28    53 1   
    58    29    54 1   
@<TRIPOS>SUBSTRUCTURE
     1 B87         1 TEMP              0 ****  ****    0 ROOT
