@<TRIPOS>MOLECULE
B88
   26    25     1     0     0
SMALL
No Charge or Current Charge


@<TRIPOS>ATOM
      1 O4           1.7290    -1.8200    -0.0630 o          1 B88      -0.831500
      2 P2           1.7130    -0.3570     0.2660 p5         1 B88       1.398000
      3 O5           1.5940    -0.0990     1.7400 o          1 B88      -0.831500
      4 C9           3.2870     0.5100    -0.4320 c3         1 B88      -0.189500
      5 N1           3.5910     1.9820    -0.2040 n8         1 B88      -0.961200
      6 C12          4.5600    -0.2980    -0.0850 c3         1 B88      -0.080100
      7 C6           0.3250     0.4910    -0.6350 c3         1 B88      -0.400400
      8 C7          -1.1240     0.2190    -0.0940 c3         1 B88      -0.138700
      9 C8          -1.5030    -1.2990    -0.0740 c          1 B88       0.744000
     10 O1          -1.7380    -1.8190     1.0090 o          1 B88      -0.771500
     11 O6          -1.5500    -1.9160    -1.1300 o          1 B88      -0.771500
     12 C13         -2.1860     1.0780    -0.8530 c3         1 B88      -0.158400
     13 C14         -3.5610     1.0190    -0.1390 c          1 B88       0.726000
     14 O3          -4.3740     0.1810    -0.4990 o          1 B88      -0.784500
     15 O2          -3.7790     1.8110     0.7670 o          1 B88      -0.784500
     16 H9           3.1330     0.3980    -1.5130 h1         1 B88       0.043700
     17 HN1          3.6780     2.1680     0.8040 hn         1 B88       0.356500
     18 HN1A         4.5190     2.2100    -0.5800 hn         1 B88       0.356500
     19 H12          4.4660    -1.3360    -0.4240 hc         1 B88       0.005700
     20 H12A         5.4450     0.1300    -0.5740 hc         1 B88       0.005700
     21 H12B         4.7350    -0.3060     0.9980 hc         1 B88       0.005700
     22 H6           0.5380     1.5640    -0.5890 hc         1 B88       0.016200
     23 H6A          0.3920     0.1940    -1.6880 hc         1 B88       0.016200
     24 H7          -1.1360     0.5600     0.9490 hc         1 B88       0.055700
     25 H13         -1.8010     2.1060    -0.8230 hc         1 B88      -0.014300
     26 H13A        -2.2500     0.6710    -1.8700 hc         1 B88      -0.014300
@<TRIPOS>BOND
     1     1     2 1   
     2     2     3 1   
     3     2     4 1   
     4     2     7 1   
     5     4     5 1   
     6     4     6 1   
     7     4    16 1   
     8     5    17 1   
     9     5    18 1   
    10     6    19 1   
    11     6    20 1   
    12     6    21 1   
    13     7     8 1   
    14     7    22 1   
    15     7    23 1   
    16     8     9 1   
    17     8    12 1   
    18     8    24 1   
    19     9    10 1   
    20     9    11 1   
    21    12    13 1   
    22    12    25 1   
    23    12    26 1   
    24    13    14 1   
    25    13    15 1   
@<TRIPOS>SUBSTRUCTURE
     1 B88         1 TEMP              0 ****  ****    0 ROOT
