@<TRIPOS>MOLECULE
B88
   26    25     1     0     0
SMALL
abcg2


@<TRIPOS>ATOM
      1 O4           1.7640    -1.8100     0.0420 o          1 B88      -0.831500
      2 P2           1.7380    -0.3100     0.2640 p5         1 B88       1.398000
      3 O5           1.6970     0.2100     1.6940 o          1 B88      -0.831500
      4 C9           3.2540     0.4130    -0.5280 c3         1 B88      -0.189500
      5 N1           3.2760     1.8520    -0.2890 n8         1 B88      -0.961200
      6 C12          4.5020    -0.3130    -0.0260 c3         1 B88      -0.080100
      7 C6           0.3700     0.4590    -0.6900 c3         1 B88      -0.400400
      8 C7          -1.0060     0.2380    -0.0630 c3         1 B88      -0.138700
      9 C8          -1.4330    -1.2400    -0.1200 c          1 B88       0.744000
     10 O1          -1.7470    -1.7960     0.9540 o          1 B88      -0.771500
     11 O6          -1.4720    -1.7680    -1.2520 o          1 B88      -0.771500
     12 C13         -2.0680     1.0960    -0.7650 c3         1 B88      -0.158400
     13 C14         -3.4410     0.9910    -0.0860 c          1 B88       0.726000
     14 O3          -4.3710     0.4580    -0.7280 o          1 B88      -0.784500
     15 O2          -3.5220     1.4470     1.0760 o          1 B88      -0.784500
     16 H9           3.1680     0.2510    -1.6090 h1         1 B88       0.043700
     17 HN1          3.2320     2.0100     0.7110 hn         1 B88       0.356500
     18 HN1A         4.1640     2.2360    -0.5950 hn         1 B88       0.356500
     19 H12          4.4750    -1.3770    -0.2630 hc         1 B88       0.005700
     20 H12A         5.4040     0.1090    -0.4760 hc         1 B88       0.005700
     21 H12B         4.5950    -0.2150     1.0580 hc         1 B88       0.005700
     22 H6           0.5790     1.5320    -0.7550 hc         1 B88       0.016200
     23 H6A          0.3740     0.0760    -1.7140 hc         1 B88       0.016200
     24 H7          -0.9600     0.5530     0.9820 hc         1 B88       0.055700
     25 H13         -1.7390     2.1420    -0.7450 hc         1 B88      -0.014300
     26 H13A        -2.1280     0.7990    -1.8140 hc         1 B88      -0.014300
@<TRIPOS>BOND
     1     1     2 1   
     2     2     3 1   
     3     2     4 1   
     4     2     7 1   
     5     4     5 1   
     6     4     6 1   
     7     4    16 1   
     8     5    17 1   
     9     5    18 1   
    10     6    19 1   
    11     6    20 1   
    12     6    21 1   
    13     7     8 1   
    14     7    22 1   
    15     7    23 1   
    16     8     9 1   
    17     8    12 1   
    18     8    24 1   
    19     9    10 1   
    20     9    11 1   
    21    12    13 1   
    22    12    25 1   
    23    12    26 1   
    24    13    14 1   
    25    13    15 1   
@<TRIPOS>SUBSTRUCTURE
     1 B88         1 TEMP              0 ****  ****    0 ROOT
