@<TRIPOS>MOLECULE
B89
   47    48     1     0     0
SMALL
bcc


@<TRIPOS>ATOM
      1 CAA          1.9640    -2.9950    -0.7250 c3         1 B89      -0.084100
      2 OAC          0.0180     0.2820     1.8700 oh         1 B89      -0.496100
      3 CLAD         8.1360     0.0590     0.9800 cl         1 B89      -0.125400
      4 CAE          6.5380     0.6740     0.7480 c2         1 B89      -0.037600
      5 CAF          5.4610     0.0540     1.2020 c2         1 B89      -0.173200
      6 CAG          1.8350    -1.6600    -1.4640 c3         1 B89      -0.147700
      7 CAH          4.0980     0.6340     1.0240 c3         1 B89       0.176600
      8 CAI         -6.8600     0.3090    -0.7350 c6         1 B89       0.131900
      9 CAJ         -6.4840     0.9810     1.4650 c6         1 B89       0.131900
     10 CAK         -5.3800     0.3420    -1.0790 c6         1 B89      -0.112400
     11 CAL         -4.9790     1.0550     1.2660 c6         1 B89      -0.112400
     12 CAM         -2.5510    -0.7020    -1.2320 c6         1 B89      -0.179400
     13 CAN         -2.1760     0.0020     1.1060 c6         1 B89      -0.059200
     14 NAO          2.0220     0.0350     0.2880 n2         1 B89      -0.547200
     15 OAP         -7.1960     1.2350     0.2750 os         1 B89      -0.399600
     16 OAQ          3.3480    -0.2870     0.2440 os         1 B89      -0.171300
     17 CAR         -1.0750    -0.5740    -1.5220 c          1 B89       0.605300
     18 CAS         -0.7090    -0.0400     0.8260 c2         1 B89       0.233900
     19 CAT          1.2840    -0.6080    -0.5420 ce         1 B89       0.524600
     20 CAU         -0.1710    -0.4090    -0.3860 ce         1 B89      -0.446800
     21 CAV         -4.5170     0.1010     0.1610 c6         1 B89      -0.054700
     22 CAW         -3.0210     0.2460    -0.1370 c6         1 B89      -0.045700
     23 HAA          2.6480    -2.9270     0.1200 hc         1 B89       0.037367
     24 HAAA         0.9970    -3.3340    -0.3510 hc         1 B89       0.037367
     25 HAAB         2.3430    -3.7590    -1.4030 hc         1 B89       0.037367
     26 HOAC         0.9720     0.3000     1.5910 ho         1 B89       0.488000
     27 HAE          6.5100     1.6100     0.2040 h4         1 B89       0.152000
     28 HAF          5.5430    -0.8840     1.7390 ha         1 B89       0.148000
     29 HAG          2.8100    -1.3510    -1.8420 hc         1 B89       0.075200
     30 HAGA         1.1860    -1.7820    -2.3240 hc         1 B89       0.075200
     31 HAH          3.6220     0.7700     2.0000 h1         1 B89       0.045200
     32 HAHA         4.1440     1.6110     0.5330 h1         1 B89       0.045200
     33 HAI         -7.4630     0.5570    -1.6100 h1         1 B89       0.044950
     34 HAIA        -7.1360    -0.7090    -0.4210 h1         1 B89       0.044950
     35 HAJ         -6.7470    -0.0130     1.8590 h1         1 B89       0.044950
     36 HAJA        -6.8110     1.7200     2.1990 h1         1 B89       0.044950
     37 HAK         -5.1960    -0.4170    -1.8430 hc         1 B89       0.051950
     38 HAKA        -5.1240     1.3120    -1.5200 hc         1 B89       0.051950
     39 HAL         -4.6880     2.0800     1.0080 hc         1 B89       0.051950
     40 HALA        -4.5020     0.8180     2.2190 hc         1 B89       0.051950
     41 HAM         -3.0880    -0.5390    -2.1660 hc         1 B89       0.071200
     42 HAMA        -2.7430    -1.7370    -0.9200 hc         1 B89       0.071200
     43 HAN         -2.4540    -0.9610     1.5540 hc         1 B89       0.074700
     44 HANA        -2.3560     0.7650     1.8640 hc         1 B89       0.074700
     45 HAV         -4.6940    -0.9290     0.5030 hc         1 B89       0.046700
     46 HAW         -2.8450     1.2770    -0.4720 hc         1 B89       0.063700
     47 OAB         -0.6760    -0.6060    -2.6760 o          1 B89      -0.543100
@<TRIPOS>BOND
     1     1     6 1   
     2     1    23 1   
     3     1    24 1   
     4     1    25 1   
     5     2    18 1   
     6     2    26 1   
     7     3     4 1   
     8     4     5 2   
     9     4    27 1   
    10     5     7 1   
    11     5    28 1   
    12     6    19 1   
    13     6    29 1   
    14     6    30 1   
    15     7    16 1   
    16     7    31 1   
    17     7    32 1   
    18     8    10 1   
    19     8    15 1   
    20     8    33 1   
    21     8    34 1   
    22     9    11 1   
    23     9    15 1   
    24     9    35 1   
    25     9    36 1   
    26    10    21 1   
    27    10    37 1   
    28    10    38 1   
    29    11    21 1   
    30    11    39 1   
    31    11    40 1   
    32    12    17 1   
    33    12    22 1   
    34    12    41 1   
    35    12    42 1   
    36    13    18 1   
    37    13    22 1   
    38    13    43 1   
    39    13    44 1   
    40    14    16 1   
    41    14    19 2   
    42    17    20 1   
    43    17    47 2   
    44    18    20 2   
    45    19    20 1   
    46    21    22 1   
    47    21    45 1   
    48    22    46 1   
@<TRIPOS>SUBSTRUCTURE
     1 B89         1 TEMP              0 ****  ****    0 ROOT
