@<TRIPOS>MOLECULE
B89
   47    48     1     0     0
SMALL
No Charge or Current Charge


@<TRIPOS>ATOM
      1 CAA          1.6290    -2.6830    -1.2550 c3         1 B89      -0.084100
      2 OAC          0.5050     0.1460     1.4730 oh         1 B89      -0.535100
      3 ClAD         6.4270    -1.3470     3.0740 cl         1 B89      -0.201000
      4 CAE          5.5150    -0.6310     1.7720 c2         1 B89      -0.012000
      5 CAF          4.7810     0.4810     1.9210 c2         1 B89      -0.223200
      6 CAG          1.9480    -1.3520    -1.9730 c3         1 B89      -0.147700
      7 CAH          3.9730     1.1460     0.8320 c3         1 B89       0.199800
      8 CAI         -6.8160     0.0570    -0.3580 c6         1 B89       0.155100
      9 CAJ         -6.1990     0.5480     1.9180 c6         1 B89       0.155100
     10 CAK         -5.3670     0.2580    -0.8640 c6         1 B89      -0.112400
     11 CAL         -4.7180     0.7790     1.5350 c6         1 B89      -0.112400
     12 CAM         -2.4220    -0.5430    -1.4480 c6         1 B89      -0.179400
     13 CAN         -1.8110     0.0250     0.9330 c6         1 B89      -0.059200
     14 NAO          2.2240     0.7360    -0.6750 n2         1 B89      -0.448700
     15 OAP         -7.0520     0.8750     0.8040 os         1 B89      -0.446000
     16 OAQ          3.0320     0.1760     0.3390 os         1 B89      -0.293000
     17 CAR         -0.9960    -0.2080    -1.8920 c          1 B89       0.605300
     18 CAS         -0.3620     0.0300     0.4620 c2         1 B89       0.233900
     19 CAT          1.4290    -0.1150    -1.2520 ce         1 B89       0.524600
     20 CAU          0.0260    -0.1070    -0.8240 ce         1 B89      -0.446800
     21 CAV         -4.3190    -0.0290     0.2590 c6         1 B89      -0.054700
     22 CAW         -2.8470     0.2820    -0.2020 c6         1 B89      -0.045700
     23 HAA          2.0340    -2.6800    -0.2360 hc         1 B89       0.037367
     24 HAAA         0.5460    -2.8490    -1.1960 hc         1 B89       0.037367
     25 HAAB         2.0720    -3.5270    -1.7970 hc         1 B89       0.037367
     26 HOAC         1.3940     0.2330     1.0420 ho         1 B89       0.527000
     27 HAE          5.5930    -1.1730     0.8280 h4         1 B89       0.202000
     28 HAF          4.7340     0.9860     2.8870 ha         1 B89       0.198000
     29 HAG          3.0370    -1.2800    -2.0830 hc         1 B89       0.075200
     30 HAGA         1.5530    -1.3870    -2.9930 hc         1 B89       0.075200
     31 HAH          3.4520     2.0250     1.2360 h1         1 B89       0.045200
     32 HAHA         4.6410     1.4840     0.0270 h1         1 B89       0.045200
     33 HAI         -7.5310     0.3380    -1.1450 h1         1 B89       0.044950
     34 HAIA        -6.9880    -0.9990    -0.1010 h1         1 B89       0.044950
     35 HAJ         -6.3610    -0.5010     2.2060 h1         1 B89       0.044950
     36 HAJA        -6.4690     1.1840     2.7740 h1         1 B89       0.044950
     37 HAK         -5.2160    -0.4080    -1.7220 hc         1 B89       0.051950
     38 HAKA        -5.2520     1.2860    -1.2360 hc         1 B89       0.051950
     39 HAL         -4.5490     1.8520     1.3720 hc         1 B89       0.051950
     40 HALA        -4.0960     0.4880     2.3910 hc         1 B89       0.051950
     41 HAM         -3.0920    -0.4350    -2.3090 hc         1 B89       0.071200
     42 HAMA        -2.4110    -1.5970    -1.1380 hc         1 B89       0.071200
     43 HAN         -2.0130    -0.9450     1.4080 hc         1 B89       0.074700
     44 HANA        -1.9250     0.7840     1.7190 hc         1 B89       0.074700
     45 HAV         -4.3810    -1.0980     0.5070 hc         1 B89       0.046700
     46 HAW         -2.7910     1.3470    -0.4730 hc         1 B89       0.063700
     47 OAB         -0.7250    -0.0470    -3.0720 o          1 B89      -0.543100
@<TRIPOS>BOND
     1     1     6 1   
     2     1    23 1   
     3     1    24 1   
     4     1    25 1   
     5     2    18 1   
     6     2    26 1   
     7     3     4 1   
     8     4     5 2   
     9     4    27 1   
    10     5     7 1   
    11     5    28 1   
    12     6    19 1   
    13     6    29 1   
    14     6    30 1   
    15     7    16 1   
    16     7    31 1   
    17     7    32 1   
    18     8    10 1   
    19     8    15 1   
    20     8    33 1   
    21     8    34 1   
    22     9    11 1   
    23     9    15 1   
    24     9    35 1   
    25     9    36 1   
    26    10    21 1   
    27    10    37 1   
    28    10    38 1   
    29    11    21 1   
    30    11    39 1   
    31    11    40 1   
    32    12    17 1   
    33    12    22 1   
    34    12    41 1   
    35    12    42 1   
    36    13    18 1   
    37    13    22 1   
    38    13    43 1   
    39    13    44 1   
    40    14    16 1   
    41    14    19 2   
    42    17    20 1   
    43    17    47 2   
    44    18    20 2   
    45    19    20 1   
    46    21    22 1   
    47    21    45 1   
    48    22    46 1   
@<TRIPOS>SUBSTRUCTURE
     1 B89         1 TEMP              0 ****  ****    0 ROOT
