@<TRIPOS>MOLECULE
B8D
   27    27     1     0     0
SMALL
abcg2


@<TRIPOS>ATOM
      1 O1           9.7290    46.8820    41.7820 oh         1 B8D      -0.721000
      2 C1           9.2900    47.2880    43.0370 c6         1 B8D       0.386300
      3 C2           8.8130    48.7360    42.9450 c6         1 B8D       0.162300
      4 O2           7.8380    48.8230    41.9410 oh         1 B8D      -0.701000
      5 C3           9.9940    49.6690    42.7050 c6         1 B8D       0.125300
      6 O3           9.4940    50.9850    42.7140 oh         1 B8D      -0.731000
      7 C4          11.0390    49.4500    43.7940 c6         1 B8D       0.110300
      8 O4          12.1570    50.2610    43.5120 os         1 B8D      -0.466000
      9 C5          11.4380    47.9710    43.8220 c6         1 B8D       0.158300
     10 O5          10.2800    47.1730    44.0230 os         1 B8D      -0.473000
     11 C6          12.4390    47.6170    44.9000 c3         1 B8D       0.166600
     12 O6          11.9400    47.9750    46.1660 oh         1 B8D      -0.714000
     13 CJ7         12.6100    51.0460    44.5910 c3         1 B8D       0.148900
     14 HO1          9.8520    45.9260    41.7890 ho         1 B8D       0.512000
     15 H1           8.4690    46.6530    43.3930 h2         1 B8D       0.076700
     16 H2           8.3870    48.9850    43.9290 h1         1 B8D       0.051700
     17 HO2          7.5000    49.7240    41.9360 ho         1 B8D       0.520000
     18 H3          10.4460    49.4320    41.7310 h1         1 B8D       0.068700
     19 HO3         10.1840    51.5750    42.3950 ho         1 B8D       0.519000
     20 H4          10.5930    49.7220    44.7600 h1         1 B8D       0.075700
     21 H5          11.9160    47.7230    42.8640 h1         1 B8D       0.060700
     22 H61         12.6470    46.5400    44.8350 h1         1 B8D       0.031200
     23 H62         13.3800    48.1300    44.6660 h1         1 B8D       0.031200
     24 HO6         12.6280    47.8130    46.8170 ho         1 B8D       0.502000
     25 HJ7         13.4280    51.6650    44.2250 h1         1 B8D       0.032367
     26 HJ7A        11.8240    51.7060    44.9740 h1         1 B8D       0.032367
     27 HJ7B        12.9810    50.4430    45.4250 h1         1 B8D       0.032367
@<TRIPOS>BOND
     1     1     2 1   
     2     1    14 1   
     3     2     3 1   
     4     2    10 1   
     5     2    15 1   
     6     3     4 1   
     7     3     5 1   
     8     3    16 1   
     9     4    17 1   
    10     5     6 1   
    11     5     7 1   
    12     5    18 1   
    13     6    19 1   
    14     7     8 1   
    15     7     9 1   
    16     7    20 1   
    17     8    13 1   
    18     9    10 1   
    19     9    11 1   
    20     9    21 1   
    21    11    12 1   
    22    11    22 1   
    23    11    23 1   
    24    12    24 1   
    25    13    25 1   
    26    13    26 1   
    27    13    27 1   
@<TRIPOS>SUBSTRUCTURE
     1 B8D         1 TEMP              0 ****  ****    0 ROOT
