@<TRIPOS>MOLECULE
B8D
   27    27     1     0     0
SMALL
No Charge or Current Charge


@<TRIPOS>ATOM
      1 O1           9.7660    46.7400    41.8040 oh         1 B8D      -0.721000
      2 C1           9.2160    47.2250    43.0320 c6         1 B8D       0.386300
      3 C2           8.6860    48.7040    42.9380 c6         1 B8D       0.162300
      4 O2           7.6520    48.8950    41.9470 oh         1 B8D      -0.701000
      5 C3           9.8710    49.6630    42.6450 c6         1 B8D       0.125300
      6 O3           9.4190    51.0310    42.5490 oh         1 B8D      -0.731000
      7 C4          10.9620    49.5140    43.7430 c6         1 B8D       0.110300
      8 O4          12.0350    50.4550    43.4630 os         1 B8D      -0.466000
      9 C5          11.4210    48.0150    43.7970 c6         1 B8D       0.158300
     10 O5          10.2660    47.1450    44.0160 os         1 B8D      -0.473000
     11 C6          12.4610    47.6910    44.9190 c3         1 B8D       0.166600
     12 O6          11.9790    47.9530    46.2540 oh         1 B8D      -0.714000
     13 CJ7         12.7110    51.0550    44.5870 c3         1 B8D       0.148900
     14 HO1         10.0840    45.8350    42.0140 ho         1 B8D       0.512000
     15 H1           8.3810    46.5770    43.3450 h2         1 B8D       0.076700
     16 H2           8.2840    48.9650    43.9280 h1         1 B8D       0.051700
     17 HO2          7.7200    49.8550    41.7230 ho         1 B8D       0.520000
     18 H3          10.3250    49.3620    41.6870 h1         1 B8D       0.068700
     19 HO3         10.2360    51.5790    42.6410 ho         1 B8D       0.519000
     20 H4          10.5070    49.7750    44.7110 h1         1 B8D       0.075700
     21 H5          11.8890    47.7540    42.8370 h1         1 B8D       0.060700
     22 H61         12.7230    46.6280    44.8250 h1         1 B8D       0.031200
     23 H62         13.3820    48.2530    44.7210 h1         1 B8D       0.031200
     24 HO6         12.6370    47.5680    46.8780 ho         1 B8D       0.502000
     25 HJ7         13.4740    51.7600    44.2370 h1         1 B8D       0.032367
     26 HJ7A        12.0010    51.6090    45.2150 h1         1 B8D       0.032367
     27 HJ7B        13.2090    50.3060    45.2120 h1         1 B8D       0.032367
@<TRIPOS>BOND
     1     1     2 1   
     2     1    14 1   
     3     2     3 1   
     4     2    10 1   
     5     2    15 1   
     6     3     4 1   
     7     3     5 1   
     8     3    16 1   
     9     4    17 1   
    10     5     6 1   
    11     5     7 1   
    12     5    18 1   
    13     6    19 1   
    14     7     8 1   
    15     7     9 1   
    16     7    20 1   
    17     8    13 1   
    18     9    10 1   
    19     9    11 1   
    20     9    21 1   
    21    11    12 1   
    22    11    22 1   
    23    11    23 1   
    24    12    24 1   
    25    13    25 1   
    26    13    26 1   
    27    13    27 1   
@<TRIPOS>SUBSTRUCTURE
     1 B8D         1 TEMP              0 ****  ****    0 ROOT
