@<TRIPOS>MOLECULE
B8E
   30    31     1     0     0
SMALL
bcc


@<TRIPOS>ATOM
      1 CAC         -4.9750     2.1380     0.7030 c3         1 B8E       0.129700
      2 OAD         -4.2080     1.4200    -0.2660 os         1 B8E      -0.425900
      3 CAE         -3.1060     0.8150     0.1520 c          1 B8E       0.641100
      4 OAA         -2.7200     0.8340     1.2920 o          1 B8E      -0.522000
      5 CAF         -2.4140     0.1020    -0.9870 c3         1 B8E      -0.162700
      6 CAG         -1.1200    -0.5090    -0.5680 cc         1 B8E       0.357600
      7 NAJ          0.0020     0.2670    -0.5570 nc         1 B8E      -0.638000
      8 CAH         -0.9450    -1.8020    -0.1720 cd         1 B8E      -0.124700
      9 CAB         -1.9420    -2.9010    -0.0450 c3         1 B8E      -0.017800
     10 SAI          0.7120    -2.0410     0.2320 ss         1 B8E      -0.175300
     11 CAK          1.0470    -0.3880    -0.1640 cd         1 B8E       0.501900
     12 CAL          2.3870     0.1900    -0.0560 ca         1 B8E      -0.134500
     13 CAM          3.5030    -0.5970     0.2300 ca         1 B8E      -0.098500
     14 CAN          4.7610    -0.0240     0.3280 ca         1 B8E      -0.133500
     15 CAQ          4.9240     1.3420     0.1380 ca         1 B8E      -0.115000
     16 CAP          3.8170     2.1320    -0.1490 ca         1 B8E      -0.133500
     17 CAO          2.5580     1.5630    -0.2460 ca         1 B8E      -0.098500
     18 H1          -5.8280     2.5430     0.1670 h1         1 B8E       0.048367
     19 H2          -5.3270     1.4840     1.4990 h1         1 B8E       0.048367
     20 H3          -4.3990     2.9550     1.1360 h1         1 B8E       0.048367
     21 H4          -3.0990    -0.6470    -1.3920 hc         1 B8E       0.085200
     22 H5          -2.2440     0.8190    -1.7940 hc         1 B8E       0.085200
     23 H6          -1.6230    -3.7970    -0.5760 hc         1 B8E       0.050033
     24 H7          -2.1020    -3.1740     0.9980 hc         1 B8E       0.050033
     25 H8          -2.9010    -2.5930    -0.4560 hc         1 B8E       0.050033
     26 H9           3.4040    -1.6670     0.3710 ha         1 B8E       0.142500
     27 H10          5.6170    -0.6480     0.5500 ha         1 B8E       0.133500
     28 H11          5.9070     1.7880     0.2150 ha         1 B8E       0.132000
     29 H12          3.9350     3.1970    -0.2960 ha         1 B8E       0.133500
     30 H13          1.6990     2.1830    -0.4640 ha         1 B8E       0.142500
@<TRIPOS>BOND
     1     1     2 1   
     2     1    18 1   
     3     1    19 1   
     4     1    20 1   
     5     2     3 1   
     6     3     4 2   
     7     3     5 1   
     8     5     6 1   
     9     5    21 1   
    10     5    22 1   
    11     6     7 1   
    12     6     8 2   
    13     7    11 2   
    14     8     9 1   
    15     8    10 1   
    16     9    23 1   
    17     9    24 1   
    18     9    25 1   
    19    10    11 1   
    20    11    12 1   
    21    12    13 ar  
    22    12    17 ar  
    23    13    14 ar  
    24    13    26 1   
    25    14    15 ar  
    26    14    27 1   
    27    15    16 ar  
    28    15    28 1   
    29    16    17 ar  
    30    16    29 1   
    31    17    30 1   
@<TRIPOS>SUBSTRUCTURE
     1 B8E         1 TEMP              0 ****  ****    0 ROOT
