@<TRIPOS>MOLECULE
B8E
   30    31     1     0     0
SMALL
No Charge or Current Charge


@<TRIPOS>ATOM
      1 CAC         -4.2260     2.4980     0.9270 c3         1 B8E       0.152900
      2 OAD         -3.4670     1.7920    -0.0710 os         1 B8E      -0.449100
      3 CAE         -3.3640     0.4290     0.0420 c          1 B8E       0.592100
      4 OAA         -3.9040    -0.2340     0.9160 o          1 B8E      -0.473000
      5 CAF         -2.5490    -0.1770    -1.0900 c3         1 B8E      -0.162700
      6 CAG         -1.2270    -0.6870    -0.6080 cc         1 B8E       0.292300
      7 NAJ         -0.1560     0.1680    -0.6370 nc         1 B8E      -0.638000
      8 CAH         -0.9670    -1.9530    -0.1340 cd         1 B8E      -0.204300
      9 CAB         -1.9220    -3.1120     0.0170 c3         1 B8E      -0.017800
     10 SAI          0.7180    -2.1170     0.3190 ss         1 B8E      -0.030400
     11 CAK          0.9350    -0.4380    -0.1800 cd         1 B8E       0.501900
     12 CAL          2.2450     0.2560    -0.0960 ca         1 B8E      -0.134500
     13 CAM          3.3960    -0.4120     0.3880 ca         1 B8E      -0.080500
     14 CAN          4.6330     0.2530     0.4640 ca         1 B8E      -0.115500
     15 CAQ          4.7410     1.5920     0.0600 ca         1 B8E      -0.097000
     16 CAP          3.6100     2.2680    -0.4220 ca         1 B8E      -0.115500
     17 CAO          2.3720     1.6070    -0.5000 ca         1 B8E      -0.080500
     18 H1          -4.2230     3.5760     0.7180 h1         1 B8E       0.048367
     19 H2          -5.2690     2.1570     0.9410 h1         1 B8E       0.048367
     20 H3          -3.7970     2.3450     1.9260 h1         1 B8E       0.048367
     21 H4          -3.1200    -1.0050    -1.5200 hc         1 B8E       0.085200
     22 H5          -2.3820     0.5810    -1.8630 hc         1 B8E       0.085200
     23 H6          -1.4210    -3.9890     0.4450 hc         1 B8E       0.050033
     24 H7          -2.7570    -2.8520     0.6790 hc         1 B8E       0.050033
     25 H8          -2.3390    -3.4080    -0.9520 hc         1 B8E       0.050033
     26 H9           3.3490    -1.4490     0.7090 ha         1 B8E       0.124500
     27 H10          5.5090    -0.2730     0.8370 ha         1 B8E       0.115500
     28 H11          5.6990     2.1050     0.1190 ha         1 B8E       0.114000
     29 H12          3.6920     3.3060    -0.7360 ha         1 B8E       0.115500
     30 H13          1.5110     2.1550    -0.8770 ha         1 B8E       0.124500
@<TRIPOS>BOND
     1     1     2 1   
     2     1    18 1   
     3     1    19 1   
     4     1    20 1   
     5     2     3 1   
     6     3     4 2   
     7     3     5 1   
     8     5     6 1   
     9     5    21 1   
    10     5    22 1   
    11     6     7 1   
    12     6     8 2   
    13     7    11 2   
    14     8     9 1   
    15     8    10 1   
    16     9    23 1   
    17     9    24 1   
    18     9    25 1   
    19    10    11 1   
    20    11    12 1   
    21    12    13 ar  
    22    12    17 ar  
    23    13    14 ar  
    24    13    26 1   
    25    14    15 ar  
    26    14    27 1   
    27    15    16 ar  
    28    15    28 1   
    29    16    17 ar  
    30    16    29 1   
    31    17    30 1   
@<TRIPOS>SUBSTRUCTURE
     1 B8E         1 TEMP              0 ****  ****    0 ROOT
