@<TRIPOS>MOLECULE
B8F
   78    82     1     0     0
SMALL
No Charge or Current Charge


@<TRIPOS>ATOM
      1 C4          -5.1590    -1.3460    -1.4620 c6         1 B8F      -0.182400
      2 C14          0.8230     0.0960     0.8300 c6         1 B8F       0.010200
      3 C5          -3.6160    -1.3390    -1.3310 c6         1 B8F      -0.066400
      4 C6          -3.0000    -0.0270    -0.7360 c6         1 B8F      -0.024000
      5 C11         -0.6220    -0.7770    -1.6950 c6         1 B8F      -0.024200
      6 C7          -1.4450    -0.3150    -0.4350 c6         1 B8F      -0.043700
      7 C8          -0.6410     0.7710     0.4010 c6         1 B8F      -0.016000
      8 C9          -1.4820     1.1680     1.6850 c6         1 B8F      -0.072400
      9 C10         -3.0330     1.4140     1.4320 c6         1 B8F      -0.069400
     10 C12          0.8980    -0.7390    -1.5570 c2         1 B8F      -0.255200
     11 C13          1.5900    -0.3600    -0.4630 c2         1 B8F      -0.040400
     12 C3          -5.9050    -0.9180    -0.1930 c          1 B8F       0.583100
     13 C1          -3.7310     0.2260     0.6460 c6         1 B8F      -0.042700
     14 C15          3.1380    -0.4240    -0.4740 c6         1 B8F       0.002500
     15 C16          3.7800     0.7970     0.2730 c6         1 B8F      -0.170000
     16 C17          3.2190     0.8220     1.7270 c6         1 B8F      -0.040400
     17 C18          1.6960     1.0800     1.7360 c6         1 B8F      -0.064400
     18 C19          3.7060    -1.8250    -0.0050 c6         1 B8F      -0.050700
     19 C2          -5.3170     0.2710     0.6350 c6         1 B8F      -0.134000
     20 C20          5.2700    -1.8520    -0.0710 c6         1 B8F      -0.056700
     21 C21          5.8600    -0.6880     0.7610 c6         1 B8F      -0.071400
     22 C22          5.3350     0.6760     0.2690 c6         1 B8F      -0.055400
     23 C23         -5.8810     0.1840     2.1000 c3         1 B8F      -0.078600
     24 C24         -5.9070     1.5860     0.0250 c3         1 B8F      -0.078600
     25 C25         -3.2130     1.1500    -1.7650 c3         1 B8F      -0.079100
     26 C26          3.0720    -3.0070    -0.8070 c3         1 B8F      -0.086100
     27 C27          5.8940    -3.1980     0.4060 c3         1 B8F      -0.083100
     28 C28          3.4330     2.2180    -0.5100 c          1 B8F       0.721000
     29 C29         -0.4130     2.0800    -0.4490 c3         1 B8F      -0.095100
     30 C30          0.6920    -1.2510     1.6770 c3         1 B8F      -0.082100
     31 O1          -6.9530    -1.4790     0.1110 o          1 B8F      -0.542100
     32 O2           3.1440     2.2230    -1.7160 o          1 B8F      -0.731000
     33 O3           3.5500     3.3010     0.0870 o          1 B8F      -0.731000
     34 H1          -5.4460    -0.6280    -2.2370 hc         1 B8F       0.058700
     35 H2          -5.5360    -2.3220    -1.7950 hc         1 B8F       0.058700
     36 H3          -3.3400    -2.1950    -0.7000 hc         1 B8F       0.045700
     37 H4          -3.1920    -1.5450    -2.3220 hc         1 B8F       0.045700
     38 H5          -0.9060    -1.8070    -1.9510 hc         1 B8F       0.031200
     39 H6          -0.8750    -0.1820    -2.5780 hc         1 B8F       0.031200
     40 H7          -1.4810    -1.2000     0.2090 hc         1 B8F       0.036700
     41 H8          -1.4220     0.3820     2.4430 hc         1 B8F       0.039200
     42 H9          -1.0470     2.0580     2.1600 hc         1 B8F       0.039200
     43 H10         -3.5010     1.5570     2.4120 hc         1 B8F       0.036700
     44 H11         -3.1690     2.3670     0.9060 hc         1 B8F       0.036700
     45 H12          1.4370    -1.0650    -2.4470 ha         1 B8F       0.169000
     46 H13         -3.5040    -0.6690     1.2420 hc         1 B8F       0.044700
     47 H14          3.4490    -0.3400    -1.5250 hc         1 B8F       0.071700
     48 H15          3.4440    -0.1070     2.2630 hc         1 B8F       0.023200
     49 H16          3.7150     1.6160     2.3030 hc         1 B8F       0.023200
     50 H17          1.5420     2.1210     1.4500 hc         1 B8F       0.042200
     51 H18          1.3340     1.0360     2.7730 hc         1 B8F       0.042200
     52 H19          3.4290    -2.0070     1.0380 hc         1 B8F       0.037700
     53 H20          5.5830    -1.7240    -1.1170 hc         1 B8F       0.044700
     54 H21          5.6290    -0.8240     1.8260 hc         1 B8F       0.019700
     55 H22          6.9560    -0.6940     0.6850 hc         1 B8F       0.019700
     56 H23          5.7050     0.8450    -0.7520 hc         1 B8F       0.045200
     57 H24          5.7740     1.4780     0.8790 hc         1 B8F       0.045200
     58 H25         -5.5120    -0.7090     2.6190 hc         1 B8F       0.036700
     59 H26         -5.6080     1.0560     2.7050 hc         1 B8F       0.036700
     60 H27         -6.9770     0.1400     2.1160 hc         1 B8F       0.036700
     61 H28         -6.9950     1.6310     0.1630 hc         1 B8F       0.036700
     62 H29         -5.4880     2.4810     0.4980 hc         1 B8F       0.036700
     63 H30         -5.7400     1.6650    -1.0530 hc         1 B8F       0.036700
     64 H31         -4.0590     0.9760    -2.4320 hc         1 B8F       0.032700
     65 H32         -3.4050     2.1110    -1.2790 hc         1 B8F       0.032700
     66 H33         -2.3610     1.3060    -2.4300 hc         1 B8F       0.032700
     67 H34          3.4200    -3.9810    -0.4490 hc         1 B8F       0.023033
     68 H35          1.9820    -3.0310    -0.7020 hc         1 B8F       0.023033
     69 H36          3.3080    -2.9370    -1.8750 hc         1 B8F       0.023033
     70 H37          5.6670    -4.0210    -0.2810 hc         1 B8F       0.020033
     71 H38          6.9880    -3.1290     0.4590 hc         1 B8F       0.020033
     72 H39          5.5310    -3.4760     1.4030 hc         1 B8F       0.020033
     73 H40          0.1010     1.8830    -1.3960 hc         1 B8F       0.046700
     74 H41         -1.3450     2.5950    -0.6850 hc         1 B8F       0.046700
     75 H42          0.1730     2.8370     0.0760 hc         1 B8F       0.046700
     76 H43          1.6410    -1.5580     2.1220 hc         1 B8F       0.024700
     77 H44          0.0030    -1.1600     2.5210 hc         1 B8F       0.024700
     78 H45          0.3490    -2.0930     1.0660 hc         1 B8F       0.024700
@<TRIPOS>BOND
     1     1     3 1   
     2     1    12 1   
     3     1    34 1   
     4     1    35 1   
     5     2     7 1   
     6     2    11 1   
     7     2    17 1   
     8     2    30 1   
     9     3     4 1   
    10     3    36 1   
    11     3    37 1   
    12     4     6 1   
    13     4    13 1   
    14     4    25 1   
    15     5     6 1   
    16     5    10 1   
    17     5    38 1   
    18     5    39 1   
    19     6     7 1   
    20     6    40 1   
    21     7     8 1   
    22     7    29 1   
    23     8     9 1   
    24     8    41 1   
    25     8    42 1   
    26     9    13 1   
    27     9    43 1   
    28     9    44 1   
    29    10    11 2   
    30    10    45 1   
    31    11    14 1   
    32    12    19 1   
    33    12    31 2   
    34    13    19 1   
    35    13    46 1   
    36    14    15 1   
    37    14    18 1   
    38    14    47 1   
    39    15    16 1   
    40    15    22 1   
    41    15    28 1   
    42    16    17 1   
    43    16    48 1   
    44    16    49 1   
    45    17    50 1   
    46    17    51 1   
    47    18    20 1   
    48    18    26 1   
    49    18    52 1   
    50    19    23 1   
    51    19    24 1   
    52    20    21 1   
    53    20    27 1   
    54    20    53 1   
    55    21    22 1   
    56    21    54 1   
    57    21    55 1   
    58    22    56 1   
    59    22    57 1   
    60    23    58 1   
    61    23    59 1   
    62    23    60 1   
    63    24    61 1   
    64    24    62 1   
    65    24    63 1   
    66    25    64 1   
    67    25    65 1   
    68    25    66 1   
    69    26    67 1   
    70    26    68 1   
    71    26    69 1   
    72    27    70 1   
    73    27    71 1   
    74    27    72 1   
    75    28    32 1   
    76    28    33 1   
    77    29    73 1   
    78    29    74 1   
    79    29    75 1   
    80    30    76 1   
    81    30    77 1   
    82    30    78 1   
@<TRIPOS>SUBSTRUCTURE
     1 B8F         1 TEMP              0 ****  ****    0 ROOT
