@<TRIPOS>MOLECULE
B8F
   78    82     1     0     0
SMALL
abcg2


@<TRIPOS>ATOM
      1 C4          -5.0430    -1.2970    -1.3920 c6         1 B8F      -0.182400
      2 C14          0.7620     0.0740     0.7710 c6         1 B8F       0.010200
      3 C5          -3.5140    -1.2890    -1.3730 c6         1 B8F      -0.066400
      4 C6          -2.9170    -0.0040    -0.7760 c6         1 B8F      -0.024000
      5 C11         -0.6110    -0.5600    -1.8050 c6         1 B8F      -0.024200
      6 C7          -1.3940    -0.2780    -0.5240 c6         1 B8F      -0.043700
      7 C8          -0.6200     0.7370     0.3550 c6         1 B8F      -0.016000
      8 C9          -1.4410     1.0890     1.6050 c6         1 B8F      -0.072400
      9 C10         -2.9000     1.4110     1.3070 c6         1 B8F      -0.069400
     10 C12          0.8680    -0.6160    -1.6070 c2         1 B8F      -0.255200
     11 C13          1.5260    -0.3210    -0.4890 c2         1 B8F      -0.040400
     12 C3          -5.6320    -1.0220    -0.0350 c          1 B8F       0.583100
     13 C1          -3.5590     0.2180     0.6180 c6         1 B8F      -0.042700
     14 C15          3.0400    -0.4250    -0.4770 c6         1 B8F       0.002500
     15 C16          3.6550     0.7770     0.2610 c6         1 B8F      -0.170000
     16 C17          3.0690     0.8240     1.6720 c6         1 B8F      -0.040400
     17 C18          1.5650     1.0610     1.6470 c6         1 B8F      -0.064400
     18 C19          3.5660    -1.7940     0.0410 c6         1 B8F      -0.050700
     19 C2          -5.1140     0.2100     0.7000 c6         1 B8F      -0.134000
     20 C20          5.1000    -1.8430    -0.0020 c6         1 B8F      -0.056700
     21 C21          5.6870    -0.6870     0.7990 c6         1 B8F      -0.071400
     22 C22          5.1880     0.6560     0.2970 c6         1 B8F      -0.055400
     23 C23         -5.5490     0.1390     2.1660 c3         1 B8F      -0.078600
     24 C24         -5.7820     1.4460     0.0710 c3         1 B8F      -0.078600
     25 C25         -3.1920     1.1450    -1.7610 c3         1 B8F      -0.079100
     26 C26          2.9500    -2.9510    -0.7390 c3         1 B8F      -0.086100
     27 C27          5.6670    -3.1660     0.5070 c3         1 B8F      -0.083100
     28 C28          3.3930     2.1140    -0.4930 c          1 B8F       0.721000
     29 C29         -0.3590     2.0370    -0.4270 c3         1 B8F      -0.095100
     30 C30          0.5750    -1.2120     1.6060 c3         1 B8F      -0.082100
     31 O1          -6.4840    -1.7450     0.4360 o          1 B8F      -0.542100
     32 O2           3.2350     2.0640    -1.7290 o          1 B8F      -0.731000
     33 O3           3.4450     3.1600     0.1890 o          1 B8F      -0.731000
     34 H1          -5.4170    -0.5400    -2.0890 hc         1 B8F       0.058700
     35 H2          -5.4140    -2.2570    -1.7540 hc         1 B8F       0.058700
     36 H3          -3.1660    -2.1530    -0.7960 hc         1 B8F       0.045700
     37 H4          -3.1600    -1.4400    -2.3950 hc         1 B8F       0.045700
     38 H5          -0.9450    -1.5050    -2.2460 hc         1 B8F       0.031200
     39 H6          -0.8140     0.1970    -2.5700 hc         1 B8F       0.031200
     40 H7          -1.4050    -1.2160     0.0410 hc         1 B8F       0.036700
     41 H8          -1.4370     0.2590     2.3140 hc         1 B8F       0.039200
     42 H9          -0.9760     1.9320     2.1210 hc         1 B8F       0.039200
     43 H10         -3.3990     1.6500     2.2470 hc         1 B8F       0.036700
     44 H11         -2.9740     2.3130     0.6930 hc         1 B8F       0.036700
     45 H12          1.4440    -0.9020    -2.4850 ha         1 B8F       0.169000
     46 H13         -3.2590    -0.6650     1.2030 hc         1 B8F       0.044700
     47 H14          3.3600    -0.3610    -1.5230 hc         1 B8F       0.071700
     48 H15          3.3020    -0.0980     2.2100 hc         1 B8F       0.023200
     49 H16          3.5400     1.6290     2.2400 hc         1 B8F       0.023200
     50 H17          1.4120     2.0840     1.3100 hc         1 B8F       0.042200
     51 H18          1.1730     1.0160     2.6680 hc         1 B8F       0.042200
     52 H19          3.2840    -1.9230     1.0930 hc         1 B8F       0.037700
     53 H20          5.4110    -1.7190    -1.0500 hc         1 B8F       0.044700
     54 H21          5.4400    -0.8190     1.8580 hc         1 B8F       0.019700
     55 H22          6.7800    -0.7170     0.7400 hc         1 B8F       0.019700
     56 H23          5.5730     0.8080    -0.7180 hc         1 B8F       0.045200
     57 H24          5.5980     1.4670     0.9060 hc         1 B8F       0.045200
     58 H25         -5.0750    -0.6930     2.6910 hc         1 B8F       0.036700
     59 H26         -5.2900     1.0550     2.6950 hc         1 B8F       0.036700
     60 H27         -6.6280     0.0160     2.2520 hc         1 B8F       0.036700
     61 H28         -6.8500     1.4510     0.2940 hc         1 B8F       0.036700
     62 H29         -5.3540     2.3580     0.4910 hc         1 B8F       0.036700
     63 H30         -5.6750     1.5040    -1.0090 hc         1 B8F       0.036700
     64 H31         -4.1520     1.0260    -2.2630 hc         1 B8F       0.032700
     65 H32         -3.2130     2.1260    -1.2910 hc         1 B8F       0.032700
     66 H33         -2.4460     1.1880    -2.5540 hc         1 B8F       0.032700
     67 H34          3.2860    -3.9160    -0.3600 hc         1 B8F       0.023033
     68 H35          1.8630    -2.9380    -0.6780 hc         1 B8F       0.023033
     69 H36          3.2160    -2.8960    -1.7980 hc         1 B8F       0.023033
     70 H37          5.4290    -4.0060    -0.1460 hc         1 B8F       0.020033
     71 H38          6.7550    -3.1130     0.5810 hc         1 B8F       0.020033
     72 H39          5.2800    -3.3970     1.5020 hc         1 B8F       0.020033
     73 H40          0.3820     1.8970    -1.2130 hc         1 B8F       0.046700
     74 H41         -1.2660     2.4170    -0.8880 hc         1 B8F       0.046700
     75 H42          0.0110     2.8290     0.2240 hc         1 B8F       0.046700
     76 H43          1.5370    -1.5860     1.9520 hc         1 B8F       0.024700
     77 H44         -0.0220    -1.0350     2.5010 hc         1 B8F       0.024700
     78 H45          0.1120    -2.0210     1.0430 hc         1 B8F       0.024700
@<TRIPOS>BOND
     1     1     3 1   
     2     1    12 1   
     3     1    34 1   
     4     1    35 1   
     5     2     7 1   
     6     2    11 1   
     7     2    17 1   
     8     2    30 1   
     9     3     4 1   
    10     3    36 1   
    11     3    37 1   
    12     4     6 1   
    13     4    13 1   
    14     4    25 1   
    15     5     6 1   
    16     5    10 1   
    17     5    38 1   
    18     5    39 1   
    19     6     7 1   
    20     6    40 1   
    21     7     8 1   
    22     7    29 1   
    23     8     9 1   
    24     8    41 1   
    25     8    42 1   
    26     9    13 1   
    27     9    43 1   
    28     9    44 1   
    29    10    11 2   
    30    10    45 1   
    31    11    14 1   
    32    12    19 1   
    33    12    31 2   
    34    13    19 1   
    35    13    46 1   
    36    14    15 1   
    37    14    18 1   
    38    14    47 1   
    39    15    16 1   
    40    15    22 1   
    41    15    28 1   
    42    16    17 1   
    43    16    48 1   
    44    16    49 1   
    45    17    50 1   
    46    17    51 1   
    47    18    20 1   
    48    18    26 1   
    49    18    52 1   
    50    19    23 1   
    51    19    24 1   
    52    20    21 1   
    53    20    27 1   
    54    20    53 1   
    55    21    22 1   
    56    21    54 1   
    57    21    55 1   
    58    22    56 1   
    59    22    57 1   
    60    23    58 1   
    61    23    59 1   
    62    23    60 1   
    63    24    61 1   
    64    24    62 1   
    65    24    63 1   
    66    25    64 1   
    67    25    65 1   
    68    25    66 1   
    69    26    67 1   
    70    26    68 1   
    71    26    69 1   
    72    27    70 1   
    73    27    71 1   
    74    27    72 1   
    75    28    32 1   
    76    28    33 1   
    77    29    73 1   
    78    29    74 1   
    79    29    75 1   
    80    30    76 1   
    81    30    77 1   
    82    30    78 1   
@<TRIPOS>SUBSTRUCTURE
     1 B8F         1 TEMP              0 ****  ****    0 ROOT
