@<TRIPOS>MOLECULE
B8I
   70    74     1     0     0
SMALL
No Charge or Current Charge


@<TRIPOS>ATOM
      1 C1          14.6950   -38.9690   -10.5340 c1         1 B8I       0.280900
      2 C2           5.3640   -37.3710    -7.5950 cc         1 B8I       0.251900
      3 C3           5.3500   -37.1320    -5.3940 cd         1 B8I      -0.223000
      4 C7           9.2280   -37.9320    -9.4430 ca         1 B8I       0.472900
      5 C8           8.5720   -37.2400    -7.3800 ca         1 B8I       0.454900
      6 C9          12.1370   -36.7560    -7.4280 cc         1 B8I      -0.377800
      7 C10         13.1780   -36.9320    -8.3120 cd         1 B8I      -0.020400
      8 C11         11.7020   -37.7980   -10.0710 c          1 B8I       0.602600
      9 C12          0.7690   -38.4160   -16.6430 c          1 B8I       0.639100
     10 C13          6.1410   -39.3620   -13.2120 c6         1 B8I      -0.086400
     11 C14          5.7650   -36.9740   -12.3910 c6         1 B8I      -0.086400
     12 C15          7.5200   -39.3830   -12.5020 c6         1 B8I      -0.089900
     13 C16          7.1480   -36.9970   -11.6920 c6         1 B8I      -0.089900
     14 C19          3.2600   -38.3360   -13.6600 c6         1 B8I       0.154800
     15 C20          4.5240   -38.4520   -15.7280 c6         1 B8I       0.154800
     16 C21          5.7460   -37.9120   -13.6320 c6         1 B8I       0.186500
     17 C22          7.5370   -38.4390   -11.2740 c6         1 B8I       0.237500
     18 C24         -1.6340   -38.4340   -16.5050 c3         1 B8I       0.169900
     19 N26         15.1450   -40.0450   -10.5280 n1         1 B8I      -0.431000
     20 N29          8.2320   -37.7460    -8.5680 nb         1 B8I      -0.341000
     21 C4          10.5570   -37.6190    -9.1310 ca         1 B8I      -0.396600
     22 C5           6.1890   -37.1670    -6.4590 cc         1 B8I       0.189000
     23 C6          10.7970   -37.1050    -7.8540 ca         1 B8I       0.295800
     24 C17          1.9360   -38.0580   -14.4230 c6         1 B8I       0.109500
     25 C18          3.2620   -38.1620   -16.5830 c6         1 B8I       0.109500
     26 N27          4.0770   -37.4660    -7.3130 nd         1 B8I      -0.521800
     27 N28          9.8030   -36.9140    -6.9720 nb         1 B8I      -0.303000
     28 N30          4.0700   -37.3180    -5.9320 na         1 B8I       0.128800
     29 N31         12.9820   -37.4330    -9.5990 n          1 B8I      -0.299000
     30 N32          1.9550   -38.3690   -15.8890 n          1 B8I      -0.408800
     31 N33          4.4540   -37.8140   -14.3870 n3         1 B8I      -0.734600
     32 N34          7.5710   -37.0280    -6.4450 nu         1 B8I      -0.894900
     33 N35          8.8790   -38.4510   -10.6750 nu         1 B8I      -0.911100
     34 O36         11.5440   -38.2400   -11.2040 o          1 B8I      -0.598000
     35 O37          0.7500   -38.4860   -17.8640 o          1 B8I      -0.549000
     36 O38         -0.3500   -38.3870   -15.8560 os         1 B8I      -0.462100
     37 H1           5.6650   -37.4450    -8.6300 h4         1 B8I       0.060100
     38 H2           5.5410   -36.9970    -4.3370 h4         1 B8I       0.155000
     39 H3          12.3240   -36.3620    -6.4330 ha         1 B8I       0.217000
     40 H4          14.2160   -36.7000    -8.0770 h4         1 B8I       0.202000
     41 H5           5.3860   -39.7860   -12.5380 hc         1 B8I       0.049950
     42 H6           6.1860   -40.0210   -14.0890 hc         1 B8I       0.049950
     43 H7           5.5250   -35.9470   -12.6990 hc         1 B8I       0.049950
     44 H8           4.9990   -37.2720   -11.6640 hc         1 B8I       0.049950
     45 H9           7.7560   -40.4080   -12.1870 hc         1 B8I       0.052950
     46 H10          8.3020   -39.0870   -13.2150 hc         1 B8I       0.052950
     47 H11          7.9100   -36.5830   -12.3680 hc         1 B8I       0.052950
     48 H12          7.1210   -36.3410   -10.8120 hc         1 B8I       0.052950
     49 H13          3.3470   -39.4230   -13.5190 h1         1 B8I       0.042450
     50 H14          3.1710   -37.8890   -12.6610 h1         1 B8I       0.042450
     51 H15          4.6220   -39.5430   -15.6300 h1         1 B8I       0.042450
     52 H16          5.4080   -38.0980   -16.2800 h1         1 B8I       0.042450
     53 H17          6.5440   -37.5490   -14.2980 h1         1 B8I       0.055700
     54 H18          6.7930   -38.8140   -10.5520 h1         1 B8I       0.074700
     55 H19         -2.4400   -38.4030   -15.7620 h1         1 B8I       0.048367
     56 H20         -1.7620   -37.5790   -17.1820 h1         1 B8I       0.048367
     57 H21         -1.7440   -39.3580   -17.0880 h1         1 B8I       0.048367
     58 H22          1.6870   -36.9940   -14.3060 h1         1 B8I       0.062200
     59 H23          1.1380   -38.6300   -13.9290 h1         1 B8I       0.062200
     60 H24          3.3060   -37.1160   -16.9180 h1         1 B8I       0.062200
     61 H25          3.3030   -38.7880   -17.4850 h1         1 B8I       0.062200
     62 H26          2.1510   -36.5520    -5.5210 h1         1 B8I       0.057700
     63 H27          2.3150   -38.3250    -5.3460 h1         1 B8I       0.057700
     64 H28          3.0090   -37.2360    -4.1090 h1         1 B8I       0.057700
     65 H29         14.9480   -36.9190   -10.2140 h1         1 B8I       0.087700
     66 H30         13.8590   -37.3290   -11.5340 h1         1 B8I       0.087700
     67 H32          7.9450   -36.7470    -5.5380 hn         1 B8I       0.514000
     68 H33          9.6910   -38.5420   -11.2950 hn         1 B8I       0.537000
     69 C23          2.8080   -37.3600    -5.1800 c3         1 B8I       0.076900
     70 C25         14.1460   -37.6040   -10.5120 c3         1 B8I       0.169100
@<TRIPOS>BOND
     1     1    19 3   
     2     1    70 1   
     3     2    22 1   
     4     2    26 2   
     5     2    37 1   
     6     3    22 2   
     7     3    28 1   
     8     3    38 1   
     9     4    20 ar  
    10     4    21 ar  
    11     4    33 1   
    12     5    20 ar  
    13     5    27 ar  
    14     5    32 1   
    15     6     7 2   
    16     6    23 1   
    17     6    39 1   
    18     7    29 1   
    19     7    40 1   
    20     8    21 1   
    21     8    29 1   
    22     8    34 2   
    23     9    30 1   
    24     9    35 2   
    25     9    36 1   
    26    10    12 1   
    27    10    16 1   
    28    10    41 1   
    29    10    42 1   
    30    11    13 1   
    31    11    16 1   
    32    11    43 1   
    33    11    44 1   
    34    12    17 1   
    35    12    45 1   
    36    12    46 1   
    37    13    17 1   
    38    13    47 1   
    39    13    48 1   
    40    14    24 1   
    41    14    31 1   
    42    14    49 1   
    43    14    50 1   
    44    15    25 1   
    45    15    31 1   
    46    15    51 1   
    47    15    52 1   
    48    16    31 1   
    49    16    53 1   
    50    17    33 1   
    51    17    54 1   
    52    18    36 1   
    53    18    55 1   
    54    18    56 1   
    55    18    57 1   
    56    21    23 ar  
    57    22    32 1   
    58    23    27 ar  
    59    24    30 1   
    60    24    58 1   
    61    24    59 1   
    62    25    30 1   
    63    25    60 1   
    64    25    61 1   
    65    26    28 1   
    66    28    69 1   
    67    29    70 1   
    68    32    67 1   
    69    33    68 1   
    70    62    69 1   
    71    63    69 1   
    72    64    69 1   
    73    65    70 1   
    74    66    70 1   
@<TRIPOS>SUBSTRUCTURE
     1 B8I         1 TEMP              0 ****  ****    0 ROOT
