@<TRIPOS>MOLECULE
B8I
   70    74     1     0     0
SMALL
abcg2


@<TRIPOS>ATOM
      1 C1          14.3110   -39.4010   -10.8040 c1         1 B8I       0.280900
      2 C2           5.4170   -37.3350    -8.0060 cc         1 B8I       0.251900
      3 C3           5.2060   -36.9970    -5.8260 cd         1 B8I      -0.223000
      4 C7           9.2580   -37.7750    -9.5940 ca         1 B8I       0.472900
      5 C8           8.5430   -37.5130    -7.4360 ca         1 B8I       0.454900
      6 C9          12.1280   -37.6790    -7.2100 cc         1 B8I      -0.377800
      7 C10         13.1720   -37.8060    -8.0540 cd         1 B8I      -0.020400
      8 C11         11.7390   -37.9180   -10.0150 c          1 B8I       0.602600
      9 C12          0.9350   -38.7950   -16.2550 c          1 B8I       0.639100
     10 C13          6.2420   -38.8700   -13.3420 c6         1 B8I      -0.086400
     11 C14          5.6330   -36.6780   -12.2630 c6         1 B8I      -0.086400
     12 C15          7.6450   -38.7780   -12.7420 c6         1 B8I      -0.089900
     13 C16          7.0370   -36.5860   -11.6670 c6         1 B8I      -0.089900
     14 C19          3.2740   -38.2210   -13.5240 c6         1 B8I       0.154800
     15 C20          4.3520   -37.8420   -15.6200 c6         1 B8I       0.154800
     16 C21          5.6370   -37.4750   -13.5690 c6         1 B8I       0.186500
     17 C22          7.6290   -37.9800   -11.4400 c6         1 B8I       0.237500
     18 C24         -1.1300   -39.9340   -16.0910 c3         1 B8I       0.169900
     19 N26         14.4440   -40.4720   -11.1980 n1         1 B8I      -0.431000
     20 N29          8.2440   -37.6400    -8.7320 nb         1 B8I      -0.341000
     21 C4          10.6200   -37.7760    -9.1280 ca         1 B8I      -0.396600
     22 C5           6.1570   -37.2420    -6.8060 cc         1 B8I       0.189000
     23 C6          10.7950   -37.6570    -7.7310 ca         1 B8I       0.295800
     24 C17          1.9100   -37.9280   -14.1340 c6         1 B8I       0.109500
     25 C18          3.0200   -37.5380   -16.2900 c6         1 B8I       0.109500
     26 N27          4.1140   -37.1580    -7.7690 nd         1 B8I      -0.521800
     27 N28          9.7680   -37.5240    -6.8810 nb         1 B8I      -0.303000
     28 N30          4.0060   -36.9560    -6.4480 na         1 B8I       0.128800
     29 N31         13.0000   -37.9100    -9.4110 n          1 B8I      -0.299000
     30 N32          1.9350   -38.1950   -15.5710 n          1 B8I      -0.408800
     31 N33          4.3140   -37.4630   -14.2120 n3         1 B8I      -0.734600
     32 N34          7.5230   -37.3510    -6.5540 nu         1 B8I      -0.894900
     33 N35          8.9760   -37.9210   -10.8900 nu         1 B8I      -0.911100
     34 O36         11.6770   -38.0480   -11.2490 o          1 B8I      -0.598000
     35 O37          0.9000   -38.9260   -17.4730 o          1 B8I      -0.549000
     36 O38         -0.0420   -39.2570   -15.4430 os         1 B8I      -0.462100
     37 H1           5.7770   -37.5080    -9.0020 h4         1 B8I       0.060100
     38 H2           5.3090   -36.8540    -4.7630 h4         1 B8I       0.155000
     39 H3          12.2910   -37.5930    -6.1470 ha         1 B8I       0.217000
     40 H4          14.1960   -37.8250    -7.7120 h4         1 B8I       0.202000
     41 H5           5.6020   -39.4410   -12.6640 hc         1 B8I       0.049950
     42 H6           6.2840   -39.4220   -14.2830 hc         1 B8I       0.049950
     43 H7           5.2360   -35.6780   -12.4550 hc         1 B8I       0.049950
     44 H8           4.9700   -37.1530   -11.5340 hc         1 B8I       0.049950
     45 H9           8.0470   -39.7760   -12.5560 hc         1 B8I       0.052950
     46 H10          8.3190   -38.2840   -13.4510 hc         1 B8I       0.052950
     47 H11          7.6970   -36.0370   -12.3480 hc         1 B8I       0.052950
     48 H12          7.0160   -36.0410   -10.7220 hc         1 B8I       0.052950
     49 H13          3.4540   -39.3060   -13.5760 h1         1 B8I       0.042450
     50 H14          3.2460   -37.9380   -12.4720 h1         1 B8I       0.042450
     51 H15          4.5760   -38.9120   -15.7540 h1         1 B8I       0.042450
     52 H16          5.1360   -37.2710   -16.1190 h1         1 B8I       0.042450
     53 H17          6.2960   -36.9430   -14.2640 h1         1 B8I       0.055700
     54 H18          7.0040   -38.5070   -10.7150 h1         1 B8I       0.074700
     55 H19         -1.8010   -40.2310   -15.2890 h1         1 B8I       0.048367
     56 H20         -1.6420   -39.2620   -16.7810 h1         1 B8I       0.048367
     57 H21         -0.7730   -40.8100   -16.6300 h1         1 B8I       0.048367
     58 H22          1.6540   -36.8760   -13.9700 h1         1 B8I       0.062200
     59 H23          1.1540   -38.5470   -13.6640 h1         1 B8I       0.062200
     60 H24          2.8490   -36.4560   -16.2920 h1         1 B8I       0.062200
     61 H25          3.0220   -37.8930   -17.3170 h1         1 B8I       0.062200
     62 H26          1.9780   -36.6250    -6.6220 h1         1 B8I       0.057700
     63 H27          2.4370   -37.6180    -5.2200 h1         1 B8I       0.057700
     64 H28          2.7300   -35.8640    -5.2020 h1         1 B8I       0.057700
     65 H29         15.0550   -37.7700    -9.7320 h1         1 B8I       0.087700
     66 H30         14.0570   -37.3580   -11.1350 h1         1 B8I       0.087700
     67 H32          7.8170   -37.2570    -5.5940 hn         1 B8I       0.514000
     68 H33          9.7780   -37.9990   -11.5060 hn         1 B8I       0.537000
     69 C23          2.7090   -36.7550    -5.8290 c3         1 B8I       0.076900
     70 C25         14.1570   -38.0360   -10.2880 c3         1 B8I       0.169100
@<TRIPOS>BOND
     1     1    19 3   
     2     1    70 1   
     3     2    22 1   
     4     2    26 2   
     5     2    37 1   
     6     3    22 2   
     7     3    28 1   
     8     3    38 1   
     9     4    20 ar  
    10     4    21 ar  
    11     4    33 1   
    12     5    20 ar  
    13     5    27 ar  
    14     5    32 1   
    15     6     7 2   
    16     6    23 1   
    17     6    39 1   
    18     7    29 1   
    19     7    40 1   
    20     8    21 1   
    21     8    29 1   
    22     8    34 2   
    23     9    30 1   
    24     9    35 2   
    25     9    36 1   
    26    10    12 1   
    27    10    16 1   
    28    10    41 1   
    29    10    42 1   
    30    11    13 1   
    31    11    16 1   
    32    11    43 1   
    33    11    44 1   
    34    12    17 1   
    35    12    45 1   
    36    12    46 1   
    37    13    17 1   
    38    13    47 1   
    39    13    48 1   
    40    14    24 1   
    41    14    31 1   
    42    14    49 1   
    43    14    50 1   
    44    15    25 1   
    45    15    31 1   
    46    15    51 1   
    47    15    52 1   
    48    16    31 1   
    49    16    53 1   
    50    17    33 1   
    51    17    54 1   
    52    18    36 1   
    53    18    55 1   
    54    18    56 1   
    55    18    57 1   
    56    21    23 ar  
    57    22    32 1   
    58    23    27 ar  
    59    24    30 1   
    60    24    58 1   
    61    24    59 1   
    62    25    30 1   
    63    25    60 1   
    64    25    61 1   
    65    26    28 1   
    66    28    69 1   
    67    29    70 1   
    68    32    67 1   
    69    33    68 1   
    70    62    69 1   
    71    63    69 1   
    72    64    69 1   
    73    65    70 1   
    74    66    70 1   
@<TRIPOS>SUBSTRUCTURE
     1 B8I         1 TEMP              0 ****  ****    0 ROOT
