@<TRIPOS>MOLECULE
B8J
   81    87     1     0     0
SMALL
No Charge or Current Charge


@<TRIPOS>ATOM
      1 C1          48.2390    -1.8100    39.4750 ca         1 B8J       0.009600
      2 C14         48.9970    -3.9460    39.9720 c          1 B8J       0.593000
      3 C2          47.3920    -0.7630    39.0740 ca         1 B8J      -0.111000
      4 C20         46.8020    -3.2660    41.0640 c6         1 B8J       0.137700
      5 C22         45.4470    -3.4580    40.3310 c6         1 B8J      -0.090900
      6 C23         44.2300    -3.3490    41.2880 c6         1 B8J       0.177300
      7 C25         45.5750    -2.4780    43.1760 c6         1 B8J       0.177300
      8 C26         46.7000    -2.1680    42.1510 c6         1 B8J      -0.090900
      9 C3          47.8940     0.2010    38.1760 ca         1 B8J      -0.113000
     10 C35         42.4710    -2.6750    43.7840 c3         1 B8J      -0.136400
     11 C37         41.3110    -3.0250    44.7440 c3         1 B8J       0.094600
     12 C4          49.1800     0.0520    37.6070 ca         1 B8J      -0.111000
     13 C42         39.0160    -5.2240    43.1560 cc         1 B8J       0.315500
     14 C43         39.6270    -6.1530    44.0430 cc         1 B8J      -0.203300
     15 C44         40.5560    -5.4760    44.7610 cd         1 B8J      -0.134300
     16 C5          49.9750    -1.0660    37.9310 ca         1 B8J      -0.110000
     17 C50         41.4000    -6.0930    45.8480 c6         1 B8J      -0.028100
     18 C51         41.3280    -7.6370    45.7350 c6         1 B8J       0.110000
     19 C53         39.3150    -7.6160    44.2640 c6         1 B8J       0.180300
     20 C59         39.4440    -9.3180    46.0980 c          1 B8J       0.652700
     21 C6          49.5010    -1.9560    38.9040 ca         1 B8J       0.002600
     22 C63         39.7850    -9.6190    47.5130 cc         1 B8J      -0.275600
     23 C66         39.9900   -10.5810    49.5210 cc         1 B8J       0.412400
     24 C68         40.2720    -8.7280    48.4380 cd         1 B8J       0.275900
     25 C74         37.9670    -5.4680    42.1300 ca         1 B8J      -0.081500
     26 C76         37.5810    -6.7600    41.6980 ca         1 B8J      -0.099000
     27 C77         36.5960    -6.9370    40.7100 ca         1 B8J      -0.062500
     28 C78         35.9670    -5.8290    40.1110 ca         1 B8J      -0.189300
     29 C79         36.3650    -4.5380    40.5050 ca         1 B8J      -0.062500
     30 C80         37.3500    -4.3630    41.4910 ca         1 B8J      -0.099000
     31 C87         34.9020    -6.0250    39.0260 c3         1 B8J       0.344300
     32 F91         34.0010    -5.0160    39.0010 f          1 B8J      -0.114000
     33 F93         34.1960    -7.1670    39.1980 f          1 B8J      -0.114000
     34 F97         35.4590    -6.0870    37.7960 f          1 B8J      -0.114000
     35 N13         47.9270    -3.0510    40.1200 n          1 B8J      -0.299000
     36 N15         49.9490    -3.2710    39.1990 n          1 B8J      -0.298000
     37 N24         44.6330    -3.5390    42.7060 n3         1 B8J      -0.742600
     38 N39         40.4920    -4.1660    44.2940 na         1 B8J       0.134800
     39 N41         39.5380    -4.0130    43.3010 nd         1 B8J      -0.512800
     40 N52         39.9280    -8.1220    45.5270 n          1 B8J      -0.404800
     41 N65         39.5700   -10.7860    48.2320 na         1 B8J      -0.268500
     42 N67         40.4130    -9.3350    49.6720 nd         1 B8J      -0.681000
     43 O61         38.7370   -10.0800    45.4500 o          1 B8J      -0.622100
     44 O95         49.0990    -5.0670    40.4520 o          1 B8J      -0.570000
     45 H1          46.3710    -0.6890    39.4360 ha         1 B8J       0.121000
     46 H2          46.9990    -4.2050    41.6040 h1         1 B8J       0.097700
     47 H3          45.3290    -2.7310    39.5190 hc         1 B8J       0.054700
     48 H4          45.4460    -4.4460    39.8520 hc         1 B8J       0.054700
     49 H5          43.7690    -2.3580    41.1610 h1         1 B8J       0.036450
     50 H6          43.4770    -4.0940    40.9900 h1         1 B8J       0.036450
     51 H7          46.0380    -2.7990    44.1200 h1         1 B8J       0.036450
     52 H8          45.0420    -1.5410    43.3890 h1         1 B8J       0.036450
     53 H9          47.6590    -2.0630    42.6760 hc         1 B8J       0.054700
     54 H10         46.4940    -1.1950    41.6890 hc         1 B8J       0.054700
     55 H11         47.2670     1.0390    37.8780 ha         1 B8J       0.115000
     56 H12         42.9820    -4.7180    43.2920 h1         1 B8J       0.054200
     57 H13         43.9090    -4.0500    44.6300 h1         1 B8J       0.054200
     58 H14         42.9650    -1.7740    44.1630 hc         1 B8J       0.061200
     59 H15         42.0510    -2.4220    42.8040 hc         1 B8J       0.061200
     60 H16         41.7130    -3.2490    45.7400 h1         1 B8J       0.064700
     61 H17         40.6530    -2.1530    44.8450 h1         1 B8J       0.064700
     62 H18         49.5360     0.7750    36.8770 ha         1 B8J       0.116000
     63 H19         50.9240    -1.2380    37.4290 ha         1 B8J       0.122000
     64 H20         42.4450    -5.7630    45.7830 hc         1 B8J       0.064200
     65 H21         41.0290    -5.7780    46.8320 hc         1 B8J       0.064200
     66 H22         41.8180    -8.1110    46.5940 h1         1 B8J       0.063200
     67 H23         41.9180    -7.9390    44.8570 h1         1 B8J       0.063200
     68 H24         38.2260    -7.7610    44.3190 h1         1 B8J       0.070200
     69 H25         39.6970    -8.2210    43.4290 h1         1 B8J       0.070200
     70 H26         39.9470   -11.3510    50.2830 h5         1 B8J       0.062100
     71 H27         40.5110    -7.6800    48.3080 h4         1 B8J       0.036100
     72 H28         38.0470    -7.6540    42.0870 ha         1 B8J       0.128500
     73 H29         36.3340    -7.9480    40.4030 ha         1 B8J       0.130500
     74 H30         35.9160    -3.6590    40.0460 ha         1 B8J       0.130500
     75 H31         37.6200    -3.3460    41.7650 ha         1 B8J       0.128500
     76 H32         51.6180    -4.4260    39.8060 h1         1 B8J       0.051367
     77 H33         51.3800    -4.2970    38.0380 h1         1 B8J       0.051367
     78 H34         52.0180    -2.9050    38.9620 h1         1 B8J       0.051367
     79 H36         39.1790   -11.6540    47.8810 hn         1 B8J       0.375000
     80 C33         43.5080    -3.8160    43.6340 c3         1 B8J       0.178800
     81 C95         51.3240    -3.7540    38.9890 c3         1 B8J       0.107300
@<TRIPOS>BOND
     1     1     3 ar  
     2     1    21 ar  
     3     1    35 1   
     4     2    35 1   
     5     2    36 1   
     6     2    44 2   
     7     3     9 ar  
     8     3    45 1   
     9     4     5 1   
    10     4     8 1   
    11     4    35 1   
    12     4    46 1   
    13     5     6 1   
    14     5    47 1   
    15     5    48 1   
    16     6    37 1   
    17     6    49 1   
    18     6    50 1   
    19     7     8 1   
    20     7    37 1   
    21     7    51 1   
    22     7    52 1   
    23     8    53 1   
    24     8    54 1   
    25     9    12 ar  
    26     9    55 1   
    27    10    11 1   
    28    10    58 1   
    29    10    59 1   
    30    10    80 1   
    31    11    38 1   
    32    11    60 1   
    33    11    61 1   
    34    12    16 ar  
    35    12    62 1   
    36    13    14 1   
    37    13    25 1   
    38    13    39 2   
    39    14    15 2   
    40    14    19 1   
    41    15    17 1   
    42    15    38 1   
    43    16    21 ar  
    44    16    63 1   
    45    17    18 1   
    46    17    64 1   
    47    17    65 1   
    48    18    40 1   
    49    18    66 1   
    50    18    67 1   
    51    19    40 1   
    52    19    68 1   
    53    19    69 1   
    54    20    22 1   
    55    20    40 1   
    56    20    43 2   
    57    21    36 1   
    58    22    24 2   
    59    22    41 1   
    60    23    41 1   
    61    23    42 2   
    62    23    70 1   
    63    24    42 1   
    64    24    71 1   
    65    25    26 ar  
    66    25    30 ar  
    67    26    27 ar  
    68    26    72 1   
    69    27    28 ar  
    70    27    73 1   
    71    28    29 ar  
    72    28    31 1   
    73    29    30 ar  
    74    29    74 1   
    75    30    75 1   
    76    31    32 1   
    77    31    33 1   
    78    31    34 1   
    79    36    81 1   
    80    37    80 1   
    81    38    39 1   
    82    41    79 1   
    83    56    80 1   
    84    57    80 1   
    85    76    81 1   
    86    77    81 1   
    87    78    81 1   
@<TRIPOS>SUBSTRUCTURE
     1 B8J         1 TEMP              0 ****  ****    0 ROOT
