@<TRIPOS>MOLECULE
B8J
   81    87     1     0     0
SMALL
abcg2


@<TRIPOS>ATOM
      1 C1          47.5510    -1.9230    39.2450 ca         1 B8J       0.009600
      2 C14         48.6460    -3.8390    39.7850 c          1 B8J       0.593000
      3 C2          46.6960    -0.8380    39.1280 ca         1 B8J      -0.111000
      4 C20         46.6160    -3.3530    41.1540 c6         1 B8J       0.137700
      5 C22         45.2030    -3.6100    40.5960 c6         1 B8J      -0.090900
      6 C23         44.1410    -3.3220    41.6630 c6         1 B8J       0.177300
      7 C25         45.7220    -2.7820    43.4320 c6         1 B8J       0.177300
      8 C26         46.5840    -2.2970    42.2580 c6         1 B8J      -0.090900
      9 C3          46.9790     0.1120    38.1430 ca         1 B8J      -0.113000
     10 C35         42.7080    -2.7820    44.3250 c3         1 B8J      -0.136400
     11 C37         41.5620    -3.1990    45.2450 c3         1 B8J       0.094600
     12 C4          48.0830    -0.0200    37.3020 ca         1 B8J      -0.111000
     13 C42         39.5970    -5.2710    43.1720 cc         1 B8J       0.315500
     14 C43         39.9740    -6.2550    44.1200 cc         1 B8J      -0.203300
     15 C44         40.7280    -5.5780    45.0570 cd         1 B8J      -0.134300
     16 C5          48.9460    -1.1130    37.4150 ca         1 B8J      -0.110000
     17 C50         41.3550    -6.1930    46.2610 c6         1 B8J      -0.028100
     18 C51         41.3030    -7.7130    46.0750 c6         1 B8J       0.110000
     19 C53         39.6510    -7.7130    44.2510 c6         1 B8J       0.180300
     20 C59         39.1430    -8.9830    46.2570 c          1 B8J       0.652700
     21 C6          48.6610    -2.0530    38.3910 ca         1 B8J       0.002600
     22 C63         39.3490    -9.2630    47.6920 cc         1 B8J      -0.275600
     23 C66         38.9550   -10.3670    49.5620 cc         1 B8J       0.412400
     24 C68         39.9110    -8.6150    48.7740 cd         1 B8J       0.275900
     25 C74         38.7900    -5.4090    41.9580 ca         1 B8J      -0.081500
     26 C76         38.6500    -6.6460    41.3210 ca         1 B8J      -0.099000
     27 C77         37.8990    -6.7710    40.1600 ca         1 B8J      -0.062500
     28 C78         37.2760    -5.6550    39.6150 ca         1 B8J      -0.189300
     29 C79         37.4050    -4.4120    40.2370 ca         1 B8J      -0.062500
     30 C80         38.1510    -4.2930    41.3960 ca         1 B8J      -0.099000
     31 C87         36.4850    -5.7540    38.3480 c3         1 B8J       0.344300
     32 F91         35.2530    -5.2010    38.4670 f          1 B8J      -0.114000
     33 F93         36.3020    -7.0260    37.9390 f          1 B8J      -0.114000
     34 F97         37.0870    -5.1010    37.3190 f          1 B8J      -0.114000
     35 N13         47.5650    -3.0250    40.0940 n          1 B8J      -0.299000
     36 N15         49.3110    -3.2250    38.7400 n          1 B8J      -0.298000
     37 N24         44.6620    -3.6870    42.9770 n3         1 B8J      -0.742600
     38 N39         40.7700    -4.2800    44.6700 na         1 B8J       0.134800
     39 N41         40.0940    -4.0760    43.5250 nd         1 B8J      -0.512800
     40 N52         39.9870    -8.1480    45.6090 n          1 B8J      -0.404800
     41 N65         38.7390   -10.3740    48.2340 na         1 B8J      -0.268500
     42 N67         39.6600    -9.3080    49.9290 nd         1 B8J      -0.681000
     43 O61         38.1750    -9.5110    45.6920 o          1 B8J      -0.622100
     44 O95         48.9520    -4.8960    40.3300 o          1 B8J      -0.570000
     45 H1          45.8340    -0.7200    39.7680 ha         1 B8J       0.121000
     46 H2          46.9990    -4.2770    41.5820 h1         1 B8J       0.097700
     47 H3          45.0210    -2.9800    39.7240 hc         1 B8J       0.054700
     48 H4          45.1380    -4.6480    40.2660 hc         1 B8J       0.054700
     49 H5          43.8380    -2.2650    41.6150 h1         1 B8J       0.036450
     50 H6          43.2450    -3.9130    41.4690 h1         1 B8J       0.036450
     51 H7          46.3380    -3.3270    44.1540 h1         1 B8J       0.036450
     52 H8          45.3180    -1.9030    43.9530 h1         1 B8J       0.036450
     53 H9          47.5970    -2.0880    42.6040 hc         1 B8J       0.054700
     54 H10         46.1810    -1.3640    41.8640 hc         1 B8J       0.054700
     55 H11         46.3240     0.9670    38.0340 ha         1 B8J       0.115000
     56 H12         43.0400    -4.7890    43.6170 h1         1 B8J       0.054200
     57 H13         44.1420    -4.2930    44.8920 h1         1 B8J       0.054200
     58 H14         43.2570    -1.9800    44.8230 hc         1 B8J       0.061200
     59 H15         42.2850    -2.3630    43.4110 hc         1 B8J       0.061200
     60 H16         41.9390    -3.5560    46.2020 h1         1 B8J       0.064700
     61 H17         40.8980    -2.3560    45.4370 h1         1 B8J       0.064700
     62 H18         48.2770     0.7320    36.5490 ha         1 B8J       0.116000
     63 H19         49.8030    -1.2220    36.7650 ha         1 B8J       0.122000
     64 H20         42.3950    -5.8800    46.3770 hc         1 B8J       0.064200
     65 H21         40.8220    -5.8960    47.1680 hc         1 B8J       0.064200
     66 H22         41.5660    -8.2360    46.9860 h1         1 B8J       0.063200
     67 H23         42.0290    -8.0020    45.3090 h1         1 B8J       0.063200
     68 H24         38.5950    -7.9070    44.0830 h1         1 B8J       0.070200
     69 H25         40.2140    -8.3170    43.5290 h1         1 B8J       0.070200
     70 H26         38.5900   -11.1430    50.2160 h5         1 B8J       0.062100
     71 H27         40.4500    -7.6840    48.7910 h4         1 B8J       0.036100
     72 H28         39.1480    -7.5200    41.7120 ha         1 B8J       0.128500
     73 H29         37.8090    -7.7350    39.6810 ha         1 B8J       0.130500
     74 H30         36.9170    -3.5410    39.8190 ha         1 B8J       0.130500
     75 H31         38.2410    -3.3310    41.8800 ha         1 B8J       0.128500
     76 H32         50.7660    -4.6810    38.6040 h1         1 B8J       0.051367
     77 H33         50.3110    -3.9520    37.0490 h1         1 B8J       0.051367
     78 H34         51.3250    -3.0460    38.1930 h1         1 B8J       0.051367
     79 H36         38.2090   -11.0530    47.7060 hn         1 B8J       0.375000
     80 C33         43.6410    -3.9520    43.9810 c3         1 B8J       0.178800
     81 C95         50.4990    -3.7540    38.1050 c3         1 B8J       0.107300
@<TRIPOS>BOND
     1     1     3 ar  
     2     1    21 ar  
     3     1    35 1   
     4     2    35 1   
     5     2    36 1   
     6     2    44 2   
     7     3     9 ar  
     8     3    45 1   
     9     4     5 1   
    10     4     8 1   
    11     4    35 1   
    12     4    46 1   
    13     5     6 1   
    14     5    47 1   
    15     5    48 1   
    16     6    37 1   
    17     6    49 1   
    18     6    50 1   
    19     7     8 1   
    20     7    37 1   
    21     7    51 1   
    22     7    52 1   
    23     8    53 1   
    24     8    54 1   
    25     9    12 ar  
    26     9    55 1   
    27    10    11 1   
    28    10    58 1   
    29    10    59 1   
    30    10    80 1   
    31    11    38 1   
    32    11    60 1   
    33    11    61 1   
    34    12    16 ar  
    35    12    62 1   
    36    13    14 1   
    37    13    25 1   
    38    13    39 2   
    39    14    15 2   
    40    14    19 1   
    41    15    17 1   
    42    15    38 1   
    43    16    21 ar  
    44    16    63 1   
    45    17    18 1   
    46    17    64 1   
    47    17    65 1   
    48    18    40 1   
    49    18    66 1   
    50    18    67 1   
    51    19    40 1   
    52    19    68 1   
    53    19    69 1   
    54    20    22 1   
    55    20    40 1   
    56    20    43 2   
    57    21    36 1   
    58    22    24 2   
    59    22    41 1   
    60    23    41 1   
    61    23    42 2   
    62    23    70 1   
    63    24    42 1   
    64    24    71 1   
    65    25    26 ar  
    66    25    30 ar  
    67    26    27 ar  
    68    26    72 1   
    69    27    28 ar  
    70    27    73 1   
    71    28    29 ar  
    72    28    31 1   
    73    29    30 ar  
    74    29    74 1   
    75    30    75 1   
    76    31    32 1   
    77    31    33 1   
    78    31    34 1   
    79    36    81 1   
    80    37    80 1   
    81    38    39 1   
    82    41    79 1   
    83    56    80 1   
    84    57    80 1   
    85    76    81 1   
    86    77    81 1   
    87    78    81 1   
@<TRIPOS>SUBSTRUCTURE
     1 B8J         1 TEMP              0 ****  ****    0 ROOT
