@<TRIPOS>MOLECULE
B8L
   77    80     1     0     0
SMALL
No Charge or Current Charge


@<TRIPOS>ATOM
      1 O1           3.3110    -2.5920     0.7490 oh         1 B8L      -0.557100
      2 C1           2.2550    -2.0020     1.3800 ca         1 B8L       0.158100
      3 C2           1.0620    -2.7280     1.4950 ca         1 B8L      -0.152000
      4 C3          -0.0500    -2.1810     2.1540 ca         1 B8L      -0.050000
      5 C4           0.0240    -0.8870     2.7170 ca         1 B8L      -0.185600
      6 C5           1.2280    -0.1600     2.5860 ca         1 B8L      -0.016000
      7 C6           2.3500    -0.6970     1.9170 ca         1 B8L      -0.162300
      8 C7          -1.1470    -0.2450     3.4290 c          1 B8L       0.623700
      9 O7          -1.0700     0.8680     3.9290 o          1 B8L      -0.601100
     10 N8          -2.3190    -0.9690     3.4680 ns         1 B8L      -0.509900
     11 C8          -3.6290    -0.4070     3.8600 c3         1 B8L       0.094700
     12 C9          -4.4330     0.1740     2.6460 c3         1 B8L       0.159300
     13 C10         -5.3400     1.3750     3.0040 c3         1 B8L      -0.074400
     14 C11         -6.1400     1.2610     4.3260 c3         1 B8L      -0.074400
     15 C12         -6.6340    -0.1560     4.6930 c3         1 B8L       0.162800
     16 N13         -5.5860    -0.9080     5.4200 n7         1 B8L      -0.870400
     17 O9          -3.5260     0.6430     1.6190 os         1 B8L      -0.431100
     18 C14         -4.4570    -1.4690     4.6360 c3         1 B8L       0.153800
     19 C15         -3.0580    -0.2440     0.6790 c          1 B8L       0.612700
     20 O15         -3.4620    -1.3960     0.5700 o          1 B8L      -0.507000
     21 C16         -1.9200     0.2980    -0.1520 ca         1 B8L      -0.126600
     22 C17         -1.2360     1.4780     0.2170 ca         1 B8L      -0.067500
     23 C18         -0.1550     1.9460    -0.5490 ca         1 B8L      -0.078500
     24 C19          0.2700     1.2500    -1.7010 ca         1 B8L      -0.123600
     25 C20         -0.4250     0.0790    -2.0770 ca         1 B8L      -0.078500
     26 C21         -1.4990    -0.3950    -1.3050 ca         1 B8L      -0.067500
     27 C22          1.4290     1.7780    -2.5250 c          1 B8L       0.606300
     28 O22          1.8080     2.9390    -2.4020 o          1 B8L      -0.510100
     29 C23          2.0970     0.8800    -3.5310 ca         1 B8L      -0.171600
     30 C24          2.2310     1.3210    -4.8650 ca         1 B8L      -0.066000
     31 C26          2.8490     0.5120    -5.8340 ca         1 B8L       0.095100
     32 O26          2.9360     1.0000    -7.1230 os         1 B8L      -0.338100
     33 C27          3.3520    -0.7530    -5.4640 ca         1 B8L      -0.136000
     34 C28          3.2410    -1.1890    -4.1310 ca         1 B8L      -0.179000
     35 C29          2.6240    -0.3760    -3.1670 ca         1 B8L       0.141100
     36 O29          2.5660    -0.8030    -1.8760 oh         1 B8L      -0.536100
     37 C66          3.6260     0.1560     1.7970 c3         1 B8L      -0.006400
     38 C71          4.2730     0.3710     3.1920 c3         1 B8L      -0.074400
     39 C72          3.3370     1.4860     1.0580 c3         1 B8L      -0.090100
     40 C81          5.6660     1.0350     3.1610 c3         1 B8L      -0.090100
     41 C30          3.5490     0.2500    -8.1880 c3         1 B8L       0.147900
     42 HO1          4.0860    -2.0030     0.8530 ho         1 B8L       0.472000
     43 H2           0.9980    -3.7270     1.0740 ha         1 B8L       0.129000
     44 H3          -0.9550    -2.7800     2.2190 ha         1 B8L       0.119000
     45 H5           1.2910     0.8400     3.0080 ha         1 B8L       0.139000
     46 HN8         -2.3050    -1.8790     3.0290 hn         1 B8L       0.317500
     47 H8          -3.4340     0.4160     4.5600 h1         1 B8L       0.105700
     48 H9          -5.0840    -0.6160     2.2480 h1         1 B8L       0.061700
     49 H101        -6.0480     1.5160     2.1780 hc         1 B8L       0.056700
     50 H102        -4.7340     2.2890     3.0480 hc         1 B8L       0.056700
     51 H111        -7.0120     1.9230     4.2500 hc         1 B8L       0.053700
     52 H112        -5.5380     1.6570     5.1530 hc         1 B8L       0.053700
     53 H121        -6.9800    -0.6930     3.7990 h1         1 B8L       0.031700
     54 H122        -7.5020    -0.0380     5.3560 h1         1 B8L       0.031700
     55 H13         -6.0460    -1.6960     5.8970 hn         1 B8L       0.419000
     56 H141        -4.8220    -2.2250     3.9270 h1         1 B8L       0.036200
     57 H142        -3.7780    -1.9860     5.3270 h1         1 B8L       0.036200
     58 H17         -1.5270     2.0330     1.1070 ha         1 B8L       0.138500
     59 H18          0.3580     2.8540    -0.2370 ha         1 B8L       0.129000
     60 H20         -0.1410    -0.4730    -2.9690 ha         1 B8L       0.129000
     61 H21         -2.0090    -1.3070    -1.6110 ha         1 B8L       0.138500
     62 H24          1.8440     2.2950    -5.1570 ha         1 B8L       0.142000
     63 H27          3.8360    -1.4030    -6.1870 ha         1 B8L       0.119000
     64 H28          3.6470    -2.1590    -3.8530 ha         1 B8L       0.117000
     65 H29          2.9300    -1.7120    -1.8270 ho         1 B8L       0.478000
     66 H66          4.3710    -0.3650     1.1850 hc         1 B8L       0.028700
     67 H711         4.3710    -0.6040     3.6860 hc         1 B8L       0.044700
     68 H712         3.6070     0.9730     3.8230 hc         1 B8L       0.044700
     69 H721         2.7140     2.1550     1.6620 hc         1 B8L       0.043700
     70 H722         4.2670     2.0130     0.8160 hc         1 B8L       0.043700
     71 H723         2.8140     1.2900     0.1150 hc         1 B8L       0.043700
     72 H811         6.0910     1.0730     4.1710 hc         1 B8L       0.033367
     73 H812         6.3550     0.4680     2.5230 hc         1 B8L       0.033367
     74 H813         5.6070     2.0630     2.7830 hc         1 B8L       0.033367
     75 H301         3.5110     0.8210    -9.1240 h1         1 B8L       0.040367
     76 H302         4.6020     0.0400    -7.9610 h1         1 B8L       0.040367
     77 H303         3.0250    -0.7010    -8.3470 h1         1 B8L       0.040367
@<TRIPOS>BOND
     1     1     2 1   
     2     1    42 1   
     3     2     3 ar  
     4     2     7 ar  
     5     3     4 ar  
     6     3    43 1   
     7     4     5 ar  
     8     4    44 1   
     9     5     6 ar  
    10     5     8 1   
    11     6     7 ar  
    12     6    45 1   
    13     7    37 1   
    14     8     9 2   
    15     8    10 1   
    16    10    11 1   
    17    10    46 1   
    18    11    12 1   
    19    11    18 1   
    20    11    47 1   
    21    12    13 1   
    22    12    17 1   
    23    12    48 1   
    24    13    14 1   
    25    13    49 1   
    26    13    50 1   
    27    14    15 1   
    28    14    51 1   
    29    14    52 1   
    30    15    16 1   
    31    15    53 1   
    32    15    54 1   
    33    16    18 1   
    34    16    55 1   
    35    17    19 1   
    36    18    56 1   
    37    18    57 1   
    38    19    20 2   
    39    19    21 1   
    40    21    22 ar  
    41    21    26 ar  
    42    22    23 ar  
    43    22    58 1   
    44    23    24 ar  
    45    23    59 1   
    46    24    25 ar  
    47    24    27 1   
    48    25    26 ar  
    49    25    60 1   
    50    26    61 1   
    51    27    28 2   
    52    27    29 1   
    53    29    30 ar  
    54    29    35 ar  
    55    30    31 ar  
    56    30    62 1   
    57    31    32 1   
    58    31    33 ar  
    59    32    41 1   
    60    33    34 ar  
    61    33    63 1   
    62    34    35 ar  
    63    34    64 1   
    64    35    36 1   
    65    36    65 1   
    66    37    38 1   
    67    37    39 1   
    68    37    66 1   
    69    38    40 1   
    70    38    67 1   
    71    38    68 1   
    72    39    69 1   
    73    39    70 1   
    74    39    71 1   
    75    40    72 1   
    76    40    73 1   
    77    40    74 1   
    78    41    75 1   
    79    41    76 1   
    80    41    77 1   
@<TRIPOS>SUBSTRUCTURE
     1 B8L         1 TEMP              0 ****  ****    0 ROOT
