@<TRIPOS>MOLECULE
B8L
   77    80     1     0     0
SMALL
abcg2


@<TRIPOS>ATOM
      1 O1           3.2430    -2.3650     0.3760 oh         1 B8L      -0.557100
      2 C1           2.2440    -1.8220     1.1110 ca         1 B8L       0.158100
      3 C2           1.0120    -2.4660     1.0290 ca         1 B8L      -0.152000
      4 C3          -0.0820    -1.9760     1.7120 ca         1 B8L      -0.050000
      5 C4           0.0360    -0.8330     2.5010 ca         1 B8L      -0.185600
      6 C5           1.2750    -0.2050     2.5650 ca         1 B8L      -0.016000
      7 C6           2.3950    -0.6700     1.8890 ca         1 B8L      -0.162300
      8 C7          -1.1030    -0.1910     3.2150 c          1 B8L       0.623700
      9 O7          -1.0130     0.9480     3.6550 o          1 B8L      -0.601100
     10 N8          -2.2320    -0.9210     3.3400 ns         1 B8L      -0.509900
     11 C8          -3.4780    -0.3620     3.8050 c3         1 B8L       0.094700
     12 C9          -4.3270     0.1740     2.6210 c3         1 B8L       0.159300
     13 C10         -5.2300     1.3440     2.9820 c3         1 B8L      -0.074400
     14 C11         -6.0100     1.1880     4.2930 c3         1 B8L      -0.074400
     15 C12         -6.3920    -0.2340     4.6980 c3         1 B8L       0.162800
     16 N13         -5.3080    -0.9060     5.3980 n7         1 B8L      -0.870400
     17 O9          -3.4620     0.6390     1.5790 os         1 B8L      -0.431100
     18 C14         -4.2470    -1.4400     4.5740 c3         1 B8L       0.153800
     19 C15         -3.0600    -0.2080     0.6420 c          1 B8L       0.612700
     20 O15         -3.5160    -1.3150     0.4820 o          1 B8L      -0.507000
     21 C16         -1.9750     0.3540    -0.2050 ca         1 B8L      -0.126600
     22 C17         -1.3400     1.5570     0.1000 ca         1 B8L      -0.067500
     23 C18         -0.3180     2.0230    -0.7080 ca         1 B8L      -0.078500
     24 C19          0.0960     1.2890    -1.8170 ca         1 B8L      -0.123600
     25 C20         -0.5360     0.0840    -2.1140 ca         1 B8L      -0.078500
     26 C21         -1.5670    -0.3770    -1.3160 ca         1 B8L      -0.067500
     27 C22          1.1580     1.8390    -2.7020 c          1 B8L       0.606300
     28 O22          1.3790     3.0310    -2.7360 o          1 B8L      -0.510100
     29 C23          1.9030     0.9080    -3.5960 ca         1 B8L      -0.171600
     30 C24          1.9900     1.2080    -4.9490 ca         1 B8L      -0.066000
     31 C26          2.6780     0.3720    -5.8240 ca         1 B8L       0.095100
     32 O26          2.6820     0.7330    -7.1250 os         1 B8L      -0.338100
     33 C27          3.3090    -0.7600    -5.3150 ca         1 B8L      -0.136000
     34 C28          3.2530    -1.0430    -3.9560 ca         1 B8L      -0.179000
     35 C29          2.5580    -0.2170    -3.0840 ca         1 B8L       0.141100
     36 O29          2.5060    -0.4120    -1.7560 oh         1 B8L      -0.536100
     37 C66          3.6890     0.1120     1.9820 c3         1 B8L      -0.006400
     38 C71          4.1820     0.1960     3.4320 c3         1 B8L      -0.074400
     39 C72          3.5100     1.4880     1.3350 c3         1 B8L      -0.090100
     40 C81          5.5400     0.8670     3.5790 c3         1 B8L      -0.090100
     41 C30          3.4200    -0.0590    -8.0330 c3         1 B8L       0.147900
     42 HO1          4.0940    -1.9700     0.5960 ho         1 B8L       0.472000
     43 H2           0.9140    -3.3460     0.4060 ha         1 B8L       0.129000
     44 H3          -1.0240    -2.4930     1.5860 ha         1 B8L       0.119000
     45 H5           1.3630     0.6950     3.1590 ha         1 B8L       0.139000
     46 HN8         -2.2370    -1.8810     3.0360 hn         1 B8L       0.317500
     47 H8          -3.2390     0.4570     4.4850 h1         1 B8L       0.105700
     48 H9          -4.9300    -0.6490     2.2310 h1         1 B8L       0.061700
     49 H101        -5.9310     1.4840     2.1560 hc         1 B8L       0.056700
     50 H102        -4.6260     2.2520     3.0370 hc         1 B8L       0.056700
     51 H111        -6.9180     1.7880     4.2100 hc         1 B8L       0.053700
     52 H112        -5.4420     1.6150     5.1220 hc         1 B8L       0.053700
     53 H121        -6.7620    -0.8000     3.8280 h1         1 B8L       0.031700
     54 H122        -7.2270    -0.1730     5.3980 h1         1 B8L       0.031700
     55 H13         -5.6900    -1.6690     5.9410 hn         1 B8L       0.419000
     56 H141        -4.6020    -2.1920     3.8480 h1         1 B8L       0.036200
     57 H142        -3.5420    -1.9480     5.2360 h1         1 B8L       0.036200
     58 H17         -1.6310     2.1290     0.9680 ha         1 B8L       0.138500
     59 H18          0.1700     2.9560    -0.4620 ha         1 B8L       0.129000
     60 H20         -0.2380    -0.4920    -2.9790 ha         1 B8L       0.129000
     61 H21         -2.0510    -1.3130    -1.5580 ha         1 B8L       0.138500
     62 H24          1.4950     2.0900    -5.3360 ha         1 B8L       0.142000
     63 H27          3.8610    -1.4350    -5.9550 ha         1 B8L       0.119000
     64 H28          3.7710    -1.9180    -3.5790 ha         1 B8L       0.117000
     65 H29          2.9080    -1.2500    -1.4980 ho         1 B8L       0.478000
     66 H66          4.4810    -0.3970     1.4200 hc         1 B8L       0.028700
     67 H711         4.2340    -0.8170     3.8410 hc         1 B8L       0.044700
     68 H712         3.4450     0.7330     4.0360 hc         1 B8L       0.044700
     69 H721         2.8050     2.0990     1.9020 hc         1 B8L       0.043700
     70 H722         4.4540     2.0310     1.2840 hc         1 B8L       0.043700
     71 H723         3.1250     1.3880     0.3210 hc         1 B8L       0.043700
     72 H811         5.8800     0.8220     4.6140 hc         1 B8L       0.033367
     73 H812         6.2950     0.3760     2.9630 hc         1 B8L       0.033367
     74 H813         5.5110     1.9190     3.2930 hc         1 B8L       0.033367
     75 H301         3.3220     0.4130    -9.0080 h1         1 B8L       0.040367
     76 H302         4.4800    -0.1020    -7.7690 h1         1 B8L       0.040367
     77 H303         3.0320    -1.0790    -8.0980 h1         1 B8L       0.040367
@<TRIPOS>BOND
     1     1     2 1   
     2     1    42 1   
     3     2     3 ar  
     4     2     7 ar  
     5     3     4 ar  
     6     3    43 1   
     7     4     5 ar  
     8     4    44 1   
     9     5     6 ar  
    10     5     8 1   
    11     6     7 ar  
    12     6    45 1   
    13     7    37 1   
    14     8     9 2   
    15     8    10 1   
    16    10    11 1   
    17    10    46 1   
    18    11    12 1   
    19    11    18 1   
    20    11    47 1   
    21    12    13 1   
    22    12    17 1   
    23    12    48 1   
    24    13    14 1   
    25    13    49 1   
    26    13    50 1   
    27    14    15 1   
    28    14    51 1   
    29    14    52 1   
    30    15    16 1   
    31    15    53 1   
    32    15    54 1   
    33    16    18 1   
    34    16    55 1   
    35    17    19 1   
    36    18    56 1   
    37    18    57 1   
    38    19    20 2   
    39    19    21 1   
    40    21    22 ar  
    41    21    26 ar  
    42    22    23 ar  
    43    22    58 1   
    44    23    24 ar  
    45    23    59 1   
    46    24    25 ar  
    47    24    27 1   
    48    25    26 ar  
    49    25    60 1   
    50    26    61 1   
    51    27    28 2   
    52    27    29 1   
    53    29    30 ar  
    54    29    35 ar  
    55    30    31 ar  
    56    30    62 1   
    57    31    32 1   
    58    31    33 ar  
    59    32    41 1   
    60    33    34 ar  
    61    33    63 1   
    62    34    35 ar  
    63    34    64 1   
    64    35    36 1   
    65    36    65 1   
    66    37    38 1   
    67    37    39 1   
    68    37    66 1   
    69    38    40 1   
    70    38    67 1   
    71    38    68 1   
    72    39    69 1   
    73    39    70 1   
    74    39    71 1   
    75    40    72 1   
    76    40    73 1   
    77    40    74 1   
    78    41    75 1   
    79    41    76 1   
    80    41    77 1   
@<TRIPOS>SUBSTRUCTURE
     1 B8L         1 TEMP              0 ****  ****    0 ROOT
