@<TRIPOS>MOLECULE
B8M
   47    46     1     0     0
SMALL
No Charge or Current Charge


@<TRIPOS>ATOM
      1 C16          6.1440     3.6110    -0.1320 c3         1 B8M      -0.088100
      2 C15          5.8570     2.1720     0.3410 c3         1 B8M      -0.074400
      3 C14          5.2240     1.2890    -0.7560 c3         1 B8M      -0.076400
      4 C13          4.9360    -0.1520    -0.2810 c3         1 B8M      -0.072400
      5 C12          4.3020    -1.0360    -1.3770 c3         1 B8M      -0.045200
      6 C11          4.0150    -2.4450    -0.8910 c2         1 B8M      -0.203200
      7 C10          2.9640    -2.8580    -0.1470 ce         1 B8M      -0.183000
      8 C9           1.8840    -1.9910     0.3390 ce         1 B8M      -0.186000
      9 C8           0.8480    -2.4430     1.0770 c2         1 B8M      -0.208200
     10 C7          -0.2890    -1.5920     1.6030 c3         1 B8M      -0.043200
     11 C6          -1.3410    -1.2860     0.5160 c3         1 B8M      -0.072400
     12 C5          -2.5130    -0.4220     1.0330 c3         1 B8M      -0.075400
     13 C4          -3.5640    -0.1150    -0.0570 c3         1 B8M      -0.073400
     14 C3          -4.7350     0.7490     0.4600 c3         1 B8M      -0.075400
     15 C2          -5.7870     1.0560    -0.6290 c3         1 B8M      -0.081400
     16 C1          -6.9550     1.9190    -0.1110 c3         1 B8M       0.163600
     17 O           -7.8850     2.1610    -1.1710 oh         1 B8M      -0.663000
     18 H161         6.5910     4.1980     0.6790 hc         1 B8M       0.031367
     19 H162         6.8400     3.6090    -0.9790 hc         1 B8M       0.031367
     20 H163         5.2180     4.1080    -0.4450 hc         1 B8M       0.031367
     21 H151         6.7950     1.7150     0.6800 hc         1 B8M       0.037200
     22 H152         5.1880     2.2100     1.2090 hc         1 B8M       0.037200
     23 H141         4.2880     1.7510    -1.0940 hc         1 B8M       0.036700
     24 H142         5.8960     1.2560    -1.6240 hc         1 B8M       0.036700
     25 H131         5.8720    -0.6160     0.0540 hc         1 B8M       0.040200
     26 H132         4.2680    -0.1170     0.5880 hc         1 B8M       0.040200
     27 H121         3.3810    -0.5640    -1.7420 hc         1 B8M       0.044700
     28 H122         4.9820    -1.0760    -2.2360 hc         1 B8M       0.044700
     29 H11          4.7680    -3.1720    -1.2010 ha         1 B8M       0.166000
     30 H10          2.8930    -3.9140     0.1260 ha         1 B8M       0.168000
     31 H9           1.9370    -0.9310     0.0830 ha         1 B8M       0.170000
     32 H8           0.7770    -3.4990     1.3430 ha         1 B8M       0.166000
     33 H71C        -0.7770    -2.1040     2.4420 hc         1 B8M       0.044200
     34 H72C         0.1040    -0.6480     2.0010 hc         1 B8M       0.044200
     35 H61C        -0.8540    -0.7690    -0.3200 hc         1 B8M       0.041200
     36 H62C        -1.7350    -2.2310     0.1230 hc         1 B8M       0.041200
     37 H51C        -3.0010    -0.9390     1.8690 hc         1 B8M       0.037200
     38 H52C        -2.1170     0.5230     1.4270 hc         1 B8M       0.037200
     39 H41C        -3.0760     0.4020    -0.8920 hc         1 B8M       0.040200
     40 H42C        -3.9590    -1.0590    -0.4510 hc         1 B8M       0.040200
     41 H31C        -5.2230     0.2320     1.2960 hc         1 B8M       0.036700
     42 H32C        -4.3400     1.6930     0.8550 hc         1 B8M       0.036700
     43 H21C        -5.3010     1.5750    -1.4650 hc         1 B8M       0.052700
     44 H22C        -6.1850     0.1130    -1.0230 hc         1 B8M       0.052700
     45 H11C        -7.4520     1.3970     0.7180 h1         1 B8M       0.014700
     46 H12C        -6.5620     2.8690     0.2740 h1         1 B8M       0.014700
     47 H           -8.6080     2.7120    -0.7950 ho         1 B8M       0.442000
@<TRIPOS>BOND
     1     1     2 1   
     2     1    18 1   
     3     1    19 1   
     4     1    20 1   
     5     2     3 1   
     6     2    21 1   
     7     2    22 1   
     8     3     4 1   
     9     3    23 1   
    10     3    24 1   
    11     4     5 1   
    12     4    25 1   
    13     4    26 1   
    14     5     6 1   
    15     5    27 1   
    16     5    28 1   
    17     6     7 2   
    18     6    29 1   
    19     7     8 1   
    20     7    30 1   
    21     8     9 2   
    22     8    31 1   
    23     9    10 1   
    24     9    32 1   
    25    10    11 1   
    26    10    33 1   
    27    10    34 1   
    28    11    12 1   
    29    11    35 1   
    30    11    36 1   
    31    12    13 1   
    32    12    37 1   
    33    12    38 1   
    34    13    14 1   
    35    13    39 1   
    36    13    40 1   
    37    14    15 1   
    38    14    41 1   
    39    14    42 1   
    40    15    16 1   
    41    15    43 1   
    42    15    44 1   
    43    16    17 1   
    44    16    45 1   
    45    16    46 1   
    46    17    47 1   
@<TRIPOS>SUBSTRUCTURE
     1 B8M         1 TEMP              0 ****  ****    0 ROOT
