@<TRIPOS>MOLECULE
B8M
   47    46     1     0     0
SMALL
bcc


@<TRIPOS>ATOM
      1 C16          7.8550     3.0460     0.0690 c3         1 B8M      -0.088100
      2 C15          7.2890     1.6830     0.4430 c3         1 B8M      -0.074400
      3 C14          6.1770     1.2300    -0.4940 c3         1 B8M      -0.076400
      4 C13          5.5980    -0.1310    -0.1290 c3         1 B8M      -0.072400
      5 C12          4.4750    -0.5690    -1.0730 c3         1 B8M      -0.045200
      6 C11          3.9620    -1.9340    -0.7420 c2         1 B8M      -0.153200
      7 C10          2.7720    -2.2480    -0.2160 ce         1 B8M      -0.133000
      8 C9           1.7110    -1.3190     0.1390 ce         1 B8M      -0.136000
      9 C8           0.5430    -1.6980     0.6680 c2         1 B8M      -0.158200
     10 C7          -0.5610    -0.7660     1.0480 c3         1 B8M      -0.043200
     11 C6          -1.8630    -1.0510     0.2960 c3         1 B8M      -0.072400
     12 C5          -2.9840    -0.0970     0.6900 c3         1 B8M      -0.075400
     13 C4          -4.2930    -0.3710    -0.0400 c3         1 B8M      -0.073400
     14 C3          -5.3960     0.6120     0.3300 c3         1 B8M      -0.075400
     15 C2          -6.7070     0.3420    -0.3990 c3         1 B8M      -0.081400
     16 C1          -7.7830     1.3420    -0.0240 c3         1 B8M       0.140400
     17 O           -8.9630     1.0460    -0.7420 oh         1 B8M      -0.600800
     18 H161         8.6560     3.3490     0.7450 hc         1 B8M       0.031367
     19 H162         8.2630     3.0380    -0.9430 hc         1 B8M       0.031367
     20 H163         7.0830     3.8160     0.1060 hc         1 B8M       0.031367
     21 H151         8.0920     0.9380     0.4400 hc         1 B8M       0.037200
     22 H152         6.9080     1.7120     1.4690 hc         1 B8M       0.037200
     23 H141         5.3750     1.9780    -0.4920 hc         1 B8M       0.036700
     24 H142         6.5570     1.1990    -1.5220 hc         1 B8M       0.036700
     25 H131         6.3950    -0.8820    -0.1380 hc         1 B8M       0.040200
     26 H132         5.2140    -0.1040     0.8950 hc         1 B8M       0.040200
     27 H121         3.6760     0.1740    -1.0540 hc         1 B8M       0.044700
     28 H122         4.8620    -0.5750    -2.0980 hc         1 B8M       0.044700
     29 H11          4.6560    -2.7480    -0.9320 ha         1 B8M       0.116000
     30 H10          2.5620    -3.2970    -0.0220 ha         1 B8M       0.118000
     31 H9           1.8850    -0.2590    -0.0260 ha         1 B8M       0.120000
     32 H8           0.3600    -2.7580     0.8350 ha         1 B8M       0.116000
     33 H71C        -0.7540    -0.8540     2.1230 hc         1 B8M       0.044200
     34 H72C        -0.2490     0.2670     0.8690 hc         1 B8M       0.044200
     35 H61C        -1.6810    -0.9780    -0.7810 hc         1 B8M       0.041200
     36 H62C        -2.1750    -2.0830     0.4870 hc         1 B8M       0.041200
     37 H51C        -3.1500    -0.1600     1.7710 hc         1 B8M       0.037200
     38 H52C        -2.6670     0.9320     0.4910 hc         1 B8M       0.037200
     39 H41C        -4.1210    -0.3330    -1.1210 hc         1 B8M       0.040200
     40 H42C        -4.6260    -1.3920     0.1800 hc         1 B8M       0.040200
     41 H31C        -5.5660     0.5740     1.4120 hc         1 B8M       0.036700
     42 H32C        -5.0580     1.6300     0.1100 hc         1 B8M       0.036700
     43 H21C        -6.5380     0.3800    -1.4800 hc         1 B8M       0.052700
     44 H22C        -7.0550    -0.6700    -0.1680 hc         1 B8M       0.052700
     45 H11C        -7.9540     1.3000     1.0600 h1         1 B8M       0.014700
     46 H12C        -7.4260     2.3570    -0.2460 h1         1 B8M       0.014700
     47 H           -9.6410     1.6740    -0.4770 ho         1 B8M       0.403000
@<TRIPOS>BOND
     1     1     2 1   
     2     1    18 1   
     3     1    19 1   
     4     1    20 1   
     5     2     3 1   
     6     2    21 1   
     7     2    22 1   
     8     3     4 1   
     9     3    23 1   
    10     3    24 1   
    11     4     5 1   
    12     4    25 1   
    13     4    26 1   
    14     5     6 1   
    15     5    27 1   
    16     5    28 1   
    17     6     7 2   
    18     6    29 1   
    19     7     8 1   
    20     7    30 1   
    21     8     9 2   
    22     8    31 1   
    23     9    10 1   
    24     9    32 1   
    25    10    11 1   
    26    10    33 1   
    27    10    34 1   
    28    11    12 1   
    29    11    35 1   
    30    11    36 1   
    31    12    13 1   
    32    12    37 1   
    33    12    38 1   
    34    13    14 1   
    35    13    39 1   
    36    13    40 1   
    37    14    15 1   
    38    14    41 1   
    39    14    42 1   
    40    15    16 1   
    41    15    43 1   
    42    15    44 1   
    43    16    17 1   
    44    16    45 1   
    45    16    46 1   
    46    17    47 1   
@<TRIPOS>SUBSTRUCTURE
     1 B8M         1 TEMP              0 ****  ****    0 ROOT
