@<TRIPOS>MOLECULE
B8O
   54    58     1     0     0
SMALL
No Charge or Current Charge


@<TRIPOS>ATOM
      1 C7          -1.6530    -0.9230     0.0730 c6         1 B8O      -0.010400
      2 C8          -1.4700    -2.1310     1.0360 c6         1 B8O       0.166800
      3 C6          -5.1840     0.2580    -0.8960 ca         1 B8O       0.059100
      4 C10          0.9580    -1.7270     1.1740 c6         1 B8O       0.139800
      5 N9          -0.1140    -2.7360     0.9160 n3         1 B8O      -0.710600
      6 C5          -3.8920    -0.2850    -0.9740 ca         1 B8O      -0.101000
      7 C4          -3.0640    -0.3220     0.1680 ca         1 B8O      -0.077300
      8 C1          -5.6550     0.7940     0.3280 ca         1 B8O       0.055100
      9 C3          -3.5490     0.1950     1.3890 ca         1 B8O      -0.109000
     10 C2          -4.8390     0.7500     1.4680 ca         1 B8O      -0.107000
     11 C11          0.8550    -0.4860     0.2290 c6         1 B8O       0.238500
     12 C12         -0.5560     0.1430     0.3340 c6         1 B8O      -0.081400
     13 C14          0.0400    -3.9470     1.7500 c3         1 B8O       0.156100
     14 C15          3.1750     0.5430     0.1750 cc         1 B8O       0.706800
     15 C17          5.3280     1.6090     0.2930 c          1 B8O       0.614600
     16 C18          5.7100     0.5360    -0.6080 cc         1 B8O      -0.329600
     17 C19          4.8490    -0.4140    -1.0400 cd         1 B8O       0.184400
     18 C22          6.8190    -0.9140    -2.0080 cc         1 B8O      -0.142000
     19 C23          5.5100    -1.3080    -1.8960 cd         1 B8O      -0.191000
     20 C26         -7.3940     0.5260    -1.8350 c6         1 B8O       0.118600
     21 C27         -7.5850     1.6770    -0.8240 c6         1 B8O       0.116600
     22 N13          1.8660     0.5400     0.5770 nu         1 B8O      -0.903400
     23 N16          3.9860     1.5610     0.6670 n          1 B8O      -0.350300
     24 N20          3.5280    -0.4340    -0.6510 nd         1 B8O      -0.667100
     25 N21          6.9410     0.2310    -1.2080 na         1 B8O      -0.078000
     26 O24          6.1190     2.4620     0.6740 o          1 B8O      -0.567000
     27 O25         -5.9850     0.2640    -2.0220 os         1 B8O      -0.330100
     28 O28         -6.9120     1.3600     0.4140 os         1 B8O      -0.329100
     29 H1          -1.5080    -1.3040    -0.9470 hc         1 B8O       0.070700
     30 H2          -1.6440    -1.8040     2.0710 h1         1 B8O       0.035700
     31 H3          -2.2390    -2.8830     0.8030 h1         1 B8O       0.035700
     32 H4           0.9060    -1.3830     2.2180 h1         1 B8O       0.039700
     33 H5           1.9470    -2.1880     1.0390 h1         1 B8O       0.039700
     34 H7          -3.5400    -0.6840    -1.9220 ha         1 B8O       0.129000
     35 H8          -2.9260     0.1750     2.2800 ha         1 B8O       0.115000
     36 H9          -5.2020     1.1530     2.4100 ha         1 B8O       0.127000
     37 H10          0.9890    -0.8380    -0.8060 h1         1 B8O       0.102700
     38 H11         -0.6540     0.9620    -0.3920 hc         1 B8O       0.047200
     39 H12         -0.6930     0.5840     1.3310 hc         1 B8O       0.047200
     40 H13         -0.7230    -4.6940     1.4940 h1         1 B8O       0.032033
     41 H14          1.0260    -4.4030     1.5930 h1         1 B8O       0.032033
     42 H15         -0.0610    -3.7040     2.8170 h1         1 B8O       0.032033
     43 H16          7.6460    -1.3340    -2.5680 h4         1 B8O       0.147000
     44 H17          5.0580    -2.1650    -2.3850 ha         1 B8O       0.148000
     45 H18         -7.8780    -0.3830    -1.4510 h1         1 B8O       0.067700
     46 H19         -7.8490     0.7780    -2.8030 h1         1 B8O       0.067700
     47 H20         -7.1570     2.6010    -1.2370 h1         1 B8O       0.067200
     48 H21         -8.6520     1.8480    -0.6270 h1         1 B8O       0.067200
     49 H22          4.2390     3.3370     1.8650 h1         1 B8O       0.055033
     50 H23          2.6460     3.1550     1.1060 h1         1 B8O       0.055033
     51 H24          3.0980     2.1410     2.5130 h1         1 B8O       0.055033
     52 H25          1.6160     1.2850     1.2150 hn         1 B8O       0.486000
     53 H26          7.7990     0.7630    -1.0810 hn         1 B8O       0.363000
     54 C29          3.4660     2.6090     1.5900 c3         1 B8O       0.061300
@<TRIPOS>BOND
     1     1     2 1   
     2     1     7 1   
     3     1    12 1   
     4     1    29 1   
     5     2     5 1   
     6     2    30 1   
     7     2    31 1   
     8     3     6 ar  
     9     3     8 ar  
    10     3    27 1   
    11     4     5 1   
    12     4    11 1   
    13     4    32 1   
    14     4    33 1   
    15     5    13 1   
    16     6     7 ar  
    17     6    34 1   
    18     7     9 ar  
    19     8    10 ar  
    20     8    28 1   
    21     9    10 ar  
    22     9    35 1   
    23    10    36 1   
    24    11    12 1   
    25    11    22 1   
    26    11    37 1   
    27    12    38 1   
    28    12    39 1   
    29    13    40 1   
    30    13    41 1   
    31    13    42 1   
    32    14    22 1   
    33    14    23 1   
    34    14    24 2   
    35    15    16 1   
    36    15    23 1   
    37    15    26 2   
    38    16    17 2   
    39    16    25 1   
    40    17    19 1   
    41    17    24 1   
    42    18    19 2   
    43    18    25 1   
    44    18    43 1   
    45    19    44 1   
    46    20    21 1   
    47    20    27 1   
    48    20    45 1   
    49    20    46 1   
    50    21    28 1   
    51    21    47 1   
    52    21    48 1   
    53    22    52 1   
    54    23    54 1   
    55    25    53 1   
    56    49    54 1   
    57    50    54 1   
    58    51    54 1   
@<TRIPOS>SUBSTRUCTURE
     1 B8O         1 TEMP              0 ****  ****    0 ROOT
