@<TRIPOS>MOLECULE
B8O
   54    58     1     0     0
SMALL
abcg2


@<TRIPOS>ATOM
      1 C7          -1.6430    -0.8340     0.0250 c6         1 B8O      -0.010400
      2 C8          -1.4250    -2.0370     0.9430 c6         1 B8O       0.166800
      3 C6          -5.1860     0.2250    -0.8510 ca         1 B8O       0.059100
      4 C10          0.9160    -1.5880     1.1270 c6         1 B8O       0.139800
      5 N9          -0.0880    -2.5740     0.7890 n3         1 B8O      -0.710600
      6 C5          -3.8950    -0.2800    -0.9410 ca         1 B8O      -0.101000
      7 C4          -3.0400    -0.2840     0.1540 ca         1 B8O      -0.077300
      8 C1          -5.6430     0.7460     0.3610 ca         1 B8O       0.055100
      9 C3          -3.5140     0.2230     1.3640 ca         1 B8O      -0.109000
     10 C2          -4.7970     0.7360     1.4630 ca         1 B8O      -0.107000
     11 C11          0.8120    -0.3770     0.2040 c6         1 B8O       0.238500
     12 C12         -0.5800     0.2330     0.2920 c6         1 B8O      -0.081400
     13 C14          0.0840    -3.7920     1.5490 c3         1 B8O       0.156100
     14 C15          3.0990     0.5120     0.1690 cc         1 B8O       0.706800
     15 C17          5.3280     1.5090     0.3210 c          1 B8O       0.614600
     16 C18          5.6870     0.4370    -0.5310 cc         1 B8O      -0.329600
     17 C19          4.7630    -0.5010    -0.9670 cd         1 B8O       0.184400
     18 C22          6.7720    -0.9920    -1.8150 cc         1 B8O      -0.142000
     19 C23          5.4610    -1.4180    -1.7900 cd         1 B8O      -0.191000
     20 C26         -7.3470     0.4190    -1.7060 c6         1 B8O       0.118600
     21 C27         -7.5230     1.5650    -0.7380 c6         1 B8O       0.116600
     22 N13          1.7990     0.6320     0.5300 nu         1 B8O      -0.903400
     23 N16          3.9610     1.4900     0.6370 n          1 B8O      -0.350300
     24 N20          3.4550    -0.4690    -0.6070 nd         1 B8O      -0.667100
     25 N21          6.9070     0.1190    -1.0590 na         1 B8O      -0.078000
     26 O24          6.0810     2.3740     0.7510 o          1 B8O      -0.567000
     27 O25         -5.9680     0.1940    -1.9570 os         1 B8O      -0.330100
     28 O28         -6.8860     1.2690     0.4950 os         1 B8O      -0.329100
     29 H1          -1.5120    -1.1850    -1.0040 hc         1 B8O       0.070700
     30 H2          -1.6200    -1.7420     1.9910 h1         1 B8O       0.035700
     31 H3          -2.1500    -2.8170     0.6970 h1         1 B8O       0.035700
     32 H4           0.8210    -1.2430     2.1740 h1         1 B8O       0.039700
     33 H5           1.9060    -2.0360     1.0220 h1         1 B8O       0.039700
     34 H7          -3.5600    -0.6740    -1.8950 ha         1 B8O       0.129000
     35 H8          -2.8800     0.2340     2.2410 ha         1 B8O       0.115000
     36 H9          -5.1560     1.1380     2.4030 ha         1 B8O       0.127000
     37 H10          0.9940    -0.7060    -0.8210 h1         1 B8O       0.102700
     38 H11         -0.6790     1.0540    -0.4210 hc         1 B8O       0.047200
     39 H12         -0.7270     0.6540     1.2940 hc         1 B8O       0.047200
     40 H13         -0.6440    -4.5390     1.2300 h1         1 B8O       0.032033
     41 H14          1.0810    -4.2020     1.3760 h1         1 B8O       0.032033
     42 H15         -0.0370    -3.6490     2.6340 h1         1 B8O       0.032033
     43 H16          7.6210    -1.4140    -2.3290 h4         1 B8O       0.147000
     44 H17          5.0600    -2.2800    -2.2990 ha         1 B8O       0.148000
     45 H18         -7.8120    -0.4900    -1.3110 h1         1 B8O       0.067700
     46 H19         -7.8140     0.6560    -2.6620 h1         1 B8O       0.067700
     47 H20         -7.1140     2.4880    -1.1620 h1         1 B8O       0.067200
     48 H21         -8.5800     1.7240    -0.5270 h1         1 B8O       0.067200
     49 H22          4.2530     3.2470     1.7040 h1         1 B8O       0.055033
     50 H23          2.6530     3.1040     0.9800 h1         1 B8O       0.055033
     51 H24          3.0750     2.1620     2.4310 h1         1 B8O       0.055033
     52 H25          1.5640     1.2380     1.2990 hn         1 B8O       0.486000
     53 H26          7.7630     0.6280    -0.9140 hn         1 B8O       0.363000
     54 C29          3.4480     2.5560     1.4850 c3         1 B8O       0.061300
@<TRIPOS>BOND
     1     1     2 1   
     2     1     7 1   
     3     1    12 1   
     4     1    29 1   
     5     2     5 1   
     6     2    30 1   
     7     2    31 1   
     8     3     6 ar  
     9     3     8 ar  
    10     3    27 1   
    11     4     5 1   
    12     4    11 1   
    13     4    32 1   
    14     4    33 1   
    15     5    13 1   
    16     6     7 ar  
    17     6    34 1   
    18     7     9 ar  
    19     8    10 ar  
    20     8    28 1   
    21     9    10 ar  
    22     9    35 1   
    23    10    36 1   
    24    11    12 1   
    25    11    22 1   
    26    11    37 1   
    27    12    38 1   
    28    12    39 1   
    29    13    40 1   
    30    13    41 1   
    31    13    42 1   
    32    14    22 1   
    33    14    23 1   
    34    14    24 2   
    35    15    16 1   
    36    15    23 1   
    37    15    26 2   
    38    16    17 2   
    39    16    25 1   
    40    17    19 1   
    41    17    24 1   
    42    18    19 2   
    43    18    25 1   
    44    18    43 1   
    45    19    44 1   
    46    20    21 1   
    47    20    27 1   
    48    20    45 1   
    49    20    46 1   
    50    21    28 1   
    51    21    47 1   
    52    21    48 1   
    53    22    52 1   
    54    23    54 1   
    55    25    53 1   
    56    49    54 1   
    57    50    54 1   
    58    51    54 1   
@<TRIPOS>SUBSTRUCTURE
     1 B8O         1 TEMP              0 ****  ****    0 ROOT
