@<TRIPOS>MOLECULE
B8R
   45    44     1     0     0
SMALL
bcc


@<TRIPOS>ATOM
      1 C           -0.9320    -7.5240   -21.5670 c          1 B8R       0.926600
      2 O           -0.3450    -7.6080   -20.4700 o          1 B8R      -0.832300
      3 N4           2.9610    -2.6150   -27.1380 n8         1 B8R      -0.894800
      4 C16          3.7370    -2.1440   -26.0020 c3         1 B8R       0.089500
      5 C17          4.3940    -0.7660   -26.1590 c          1 B8R       0.681100
      6 O5           5.4070    -0.5560   -25.4970 o          1 B8R      -0.627100
      7 N5           3.9190     0.1650   -27.0110 n          1 B8R      -0.465800
      8 C18          4.7120     1.3610   -27.2310 c3         1 B8R       0.098300
      9 C19          2.6010     0.1870   -27.6160 c3         1 B8R       0.098300
     10 C20          3.0530    -2.2610   -24.6300 c3         1 B8R      -0.104400
     11 C21          1.8320    -1.3710   -24.4330 c3         1 B8R      -0.072400
     12 C22          1.1950    -1.5100   -23.0500 c3         1 B8R      -0.072400
     13 C23          0.7520    -2.9210   -22.6690 c3         1 B8R      -0.080400
     14 CG          -0.2450    -3.5430   -23.6400 c3         1 B8R      -0.069400
     15 CD          -0.6570    -4.9670   -23.2800 c3         1 B8R      -0.073400
     16 CB          -1.4150    -5.0780   -21.9620 c3         1 B8R      -0.049400
     17 CA          -2.0400    -6.4510   -21.7010 c3         1 B8R       0.019500
     18 N           -2.8520    -6.3590   -20.4890 n8         1 B8R      -0.858800
     19 OXT         -0.6980    -8.2000   -22.5910 o          1 B8R      -0.832300
     20 H5           4.6120    -2.7990   -25.9570 h1         1 B8R       0.076700
     21 H6           5.7750     1.1390   -27.1800 h1         1 B8R       0.035700
     22 H7           4.4930     1.7500   -28.2240 h1         1 B8R       0.035700
     23 H8           4.4870     2.1430   -26.5020 h1         1 B8R       0.035700
     24 H9           1.8650    -0.3420   -27.0210 h1         1 B8R       0.035700
     25 H10          2.2650     1.2230   -27.6630 h1         1 B8R       0.035700
     26 H11          2.6000    -0.2190   -28.6280 h1         1 B8R       0.035700
     27 H12          2.7760    -3.3110   -24.5010 hc         1 B8R       0.062700
     28 H13          3.7870    -2.0430   -23.8500 hc         1 B8R       0.062700
     29 H14          2.1130    -0.3230   -24.5740 hc         1 B8R       0.029200
     30 H15          1.0790    -1.5850   -25.1980 hc         1 B8R       0.029200
     31 H16          1.9040    -1.1480   -22.2990 hc         1 B8R       0.032200
     32 H17          0.3310    -0.8410   -22.9980 hc         1 B8R       0.032200
     33 H18          0.3140    -2.8800   -21.6680 hc         1 B8R       0.049200
     34 H19          1.6230    -3.5790   -22.5810 hc         1 B8R       0.049200
     35 H20          0.1850    -3.5540   -24.6460 hc         1 B8R       0.015700
     36 H21         -1.1370    -2.9080   -23.6990 hc         1 B8R       0.015700
     37 H22         -1.2840    -5.3650   -24.0850 hc         1 B8R       0.050700
     38 H23          0.2350    -5.6000   -23.2580 hc         1 B8R       0.050700
     39 H24         -0.7620    -4.8300   -21.1200 hc         1 B8R       0.022200
     40 H25         -2.2170    -4.3280   -21.9580 hc         1 B8R       0.022200
     41 H26         -2.6440    -6.7110   -22.5840 h1         1 B8R      -0.002300
     42 H2          -3.6230    -5.7260   -20.6640 hn         1 B8R       0.305300
     43 H           -3.2800    -7.2570   -20.2970 hn         1 B8R       0.305300
     44 H27          3.0260    -3.6240   -27.1700 hn         1 B8R       0.347800
     45 H3           1.9760    -2.4120   -27.0300 hn         1 B8R       0.347800
@<TRIPOS>BOND
     1     1     2 1   
     2     1    17 1   
     3     1    19 1   
     4     3     4 1   
     5     3    44 1   
     6     3    45 1   
     7     4     5 1   
     8     4    10 1   
     9     4    20 1   
    10     5     6 2   
    11     5     7 1   
    12     7     8 1   
    13     7     9 1   
    14     8    21 1   
    15     8    22 1   
    16     8    23 1   
    17     9    24 1   
    18     9    25 1   
    19     9    26 1   
    20    10    11 1   
    21    10    27 1   
    22    10    28 1   
    23    11    12 1   
    24    11    29 1   
    25    11    30 1   
    26    12    13 1   
    27    12    31 1   
    28    12    32 1   
    29    13    14 1   
    30    13    33 1   
    31    13    34 1   
    32    14    15 1   
    33    14    35 1   
    34    14    36 1   
    35    15    16 1   
    36    15    37 1   
    37    15    38 1   
    38    16    17 1   
    39    16    39 1   
    40    16    40 1   
    41    17    18 1   
    42    17    41 1   
    43    18    42 1   
    44    18    43 1   
@<TRIPOS>SUBSTRUCTURE
     1 B8R         1 TEMP              0 ****  ****    0 ROOT
