@<TRIPOS>MOLECULE
B8R
   45    44     1     0     0
SMALL
No Charge or Current Charge


@<TRIPOS>ATOM
      1 C           -0.9990    -7.5660   -21.4350 c          1 B8R       0.926600
      2 O           -0.0560    -7.4090   -20.6620 o          1 B8R      -0.832300
      3 N4           3.1620    -2.8090   -27.2050 n8         1 B8R      -0.894800
      4 C16          3.9750    -2.1860   -26.1040 c3         1 B8R       0.089500
      5 C17          4.6250    -0.7570   -26.3440 c          1 B8R       0.681100
      6 O5           5.8100    -0.5850   -26.0690 o          1 B8R      -0.627100
      7 N5           3.8570     0.3430   -26.8200 n          1 B8R      -0.465800
      8 C18          4.4570     1.6970   -26.8290 c3         1 B8R       0.098300
      9 C19          2.6640     0.1550   -27.6750 c3         1 B8R       0.098300
     10 C20          3.2250    -2.2920   -24.7460 c3         1 B8R      -0.104400
     11 C21          1.9220    -1.4630   -24.6080 c3         1 B8R      -0.072400
     12 C22          1.2470    -1.5580   -23.2160 c3         1 B8R      -0.072400
     13 C23          0.7930    -2.9710   -22.7670 c3         1 B8R      -0.080400
     14 CG          -0.2560    -3.6340   -23.6940 c3         1 B8R      -0.069400
     15 CD          -0.7220    -5.0360   -23.2350 c3         1 B8R      -0.073400
     16 CB          -1.5240    -5.0470   -21.9090 c3         1 B8R      -0.049400
     17 CA          -2.1200    -6.4350   -21.5460 c3         1 B8R       0.019500
     18 N           -3.0610    -6.2920   -20.3740 n8         1 B8R      -0.858800
     19 OXT         -1.1460    -8.5990   -22.0820 o          1 B8R      -0.832300
     20 H5           4.8510    -2.8420   -26.0000 h1         1 B8R       0.076700
     21 H6           5.1790     1.7770   -27.6510 h1         1 B8R       0.035700
     22 H7           3.6780     2.4600   -26.9590 h1         1 B8R       0.035700
     23 H8           4.9700     1.8880   -25.8770 h1         1 B8R       0.035700
     24 H9           1.8620    -0.3410   -27.1180 h1         1 B8R       0.035700
     25 H10          2.2850     1.1240   -28.0240 h1         1 B8R       0.035700
     26 H11          2.9290    -0.4450   -28.5540 h1         1 B8R       0.035700
     27 H12          2.9970    -3.3500   -24.5660 hc         1 B8R       0.062700
     28 H13          3.9160    -1.9930   -23.9480 hc         1 B8R       0.062700
     29 H14          2.1520    -0.4070   -24.7870 hc         1 B8R       0.029200
     30 H15          1.2050    -1.7630   -25.3810 hc         1 B8R       0.029200
     31 H16          1.9400    -1.1600   -22.4640 hc         1 B8R       0.032200
     32 H17          0.3750    -0.8920   -23.2070 hc         1 B8R       0.032200
     33 H18          0.3720    -2.8770   -21.7590 hc         1 B8R       0.049200
     34 H19          1.6660    -3.6280   -22.6720 hc         1 B8R       0.049200
     35 H20          0.1690    -3.7360   -24.6990 hc         1 B8R       0.015700
     36 H21         -1.1280    -2.9750   -23.7870 hc         1 B8R       0.015700
     37 H22         -1.3500    -5.4630   -24.0270 hc         1 B8R       0.050700
     38 H23          0.1540    -5.6900   -23.1460 hc         1 B8R       0.050700
     39 H24         -0.8800    -4.7100   -21.0880 hc         1 B8R       0.022200
     40 H25         -2.3400    -4.3180   -21.9900 hc         1 B8R       0.022200
     41 H26         -2.7630    -6.7240   -22.3880 h1         1 B8R      -0.002300
     42 H2          -3.7810    -5.6000   -20.6010 hn         1 B8R       0.305300
     43 H           -3.5730    -7.1700   -20.2420 hn         1 B8R       0.305300
     44 H27          2.8450    -3.7370   -26.9080 hn         1 B8R       0.347800
     45 H3           2.2970    -2.2760   -27.3290 hn         1 B8R       0.347800
@<TRIPOS>BOND
     1     1     2 1   
     2     1    17 1   
     3     1    19 1   
     4     3     4 1   
     5     3    44 1   
     6     3    45 1   
     7     4     5 1   
     8     4    10 1   
     9     4    20 1   
    10     5     6 2   
    11     5     7 1   
    12     7     8 1   
    13     7     9 1   
    14     8    21 1   
    15     8    22 1   
    16     8    23 1   
    17     9    24 1   
    18     9    25 1   
    19     9    26 1   
    20    10    11 1   
    21    10    27 1   
    22    10    28 1   
    23    11    12 1   
    24    11    29 1   
    25    11    30 1   
    26    12    13 1   
    27    12    31 1   
    28    12    32 1   
    29    13    14 1   
    30    13    33 1   
    31    13    34 1   
    32    14    15 1   
    33    14    35 1   
    34    14    36 1   
    35    15    16 1   
    36    15    37 1   
    37    15    38 1   
    38    16    17 1   
    39    16    39 1   
    40    16    40 1   
    41    17    18 1   
    42    17    41 1   
    43    18    42 1   
    44    18    43 1   
@<TRIPOS>SUBSTRUCTURE
     1 B8R         1 TEMP              0 ****  ****    0 ROOT
