@<TRIPOS>MOLECULE
B8V
   92    97     1     0     0
SMALL
abcg2


@<TRIPOS>ATOM
      1 C1          -3.5020     2.1990    -0.0580 ca         1 B8V      -0.057500
      2 C13         -7.6790     1.1970    -0.1890 c3         1 B8V       0.358300
      3 C2          -3.9080     0.8770    -0.2530 ca         1 B8V      -0.114000
      4 C23         -4.2410    -2.1060    -0.2820 c3         1 B8V       0.040600
      5 C25         -4.6290    -3.5810    -0.2980 c3         1 B8V       0.176800
      6 C29         -3.8680    -5.7490     0.3830 c6         1 B8V       0.166800
      7 C3          -5.2470     0.5220    -0.3090 ca         1 B8V      -0.042000
      8 C30         -2.6540    -6.6060     0.7080 c6         1 B8V      -0.075400
      9 C31         -1.7380    -6.7300    -0.5010 c6         1 B8V      -0.075400
     10 C32         -1.3870    -5.3450    -1.0260 c6         1 B8V      -0.075400
     11 C33         -2.6480    -4.5340    -1.2870 c6         1 B8V       0.166800
     12 C4          -6.2200     1.5280    -0.1650 ca         1 B8V      -0.193300
     13 C40         -2.0750     2.5150    -0.0170 cc         1 B8V       0.307500
     14 C42         -1.4130     3.6520     0.4960 cc         1 B8V      -0.180300
     15 C43         -0.0800     3.4040     0.2700 cd         1 B8V      -0.129300
     16 C5          -5.8170     2.8430     0.0200 ca         1 B8V      -0.054000
     17 C51          1.0340     4.3200     0.6280 c6         1 B8V      -0.007100
     18 C52          0.4150     5.6840     0.9320 c6         1 B8V       0.165800
     19 C54         -1.8680     4.9040     1.1720 c6         1 B8V       0.244100
     20 C6          -4.4760     3.1830     0.0720 ca         1 B8V      -0.119000
     21 C62          1.8360     0.7490     0.4650 c3         1 B8V       0.156300
     22 C66          2.9780    -0.1100    -0.0730 c3         1 B8V       0.138800
     23 C70          4.3450    -2.0220     0.5450 c6         1 B8V       0.166800
     24 C71          5.5740    -1.8200    -0.3410 c6         1 B8V      -0.108400
     25 C72          6.6040    -0.9400     0.3770 c6         1 B8V      -0.007400
     26 C73          5.9360     0.3600     0.8370 c6         1 B8V      -0.108400
     27 C74          4.6790     0.0650     1.6580 c6         1 B8V       0.166800
     28 C81          7.8230    -0.6760    -0.4730 ca         1 B8V      -0.105300
     29 C83          9.1060    -1.1040    -0.0930 ca         1 B8V       0.147100
     30 C84         10.2070    -0.8370    -0.9050 ca         1 B8V      -0.197000
     31 C85         10.0450    -0.1450    -2.0990 ca         1 B8V      -0.072000
     32 C86          8.7880     0.2840    -2.4900 ca         1 B8V      -0.147000
     33 C87          7.6980     0.0130    -1.6740 ca         1 B8V      -0.077000
     34 C96         10.4680    -2.2110     1.5150 c3         1 B8V       0.149900
     35 F17         -8.0370     0.4190     0.8440 f          1 B8V      -0.111000
     36 F19         -8.4520     2.2850    -0.1350 f          1 B8V      -0.111000
     37 F21         -8.0260     0.5330    -1.3030 f          1 B8V      -0.111000
     38 N29         -3.4730    -4.4310    -0.0920 n3         1 B8V      -0.719600
     39 N44         -0.0030     2.2010    -0.3340 na         1 B8V       0.159800
     40 N45         -1.1950     1.6510    -0.5060 nd         1 B8V      -0.519800
     41 N53         -0.7210     5.5190     1.8240 n7         1 B8V      -0.863400
     42 N68          3.7150    -0.7850     0.9760 n3         1 B8V      -0.710600
     43 O64          0.9000     0.0160     1.2090 oh         1 B8V      -0.621000
     44 O94          9.2010    -1.7700     1.0780 os         1 B8V      -0.346100
     45 S23         -5.7520    -1.1460    -0.5750 ss         1 B8V      -0.151000
     46 H1          -3.1400     0.1260    -0.3600 ha         1 B8V       0.136000
     47 H2          -3.8190    -1.8430     0.6880 h1         1 B8V       0.074700
     48 H3          -3.5100    -1.8820    -1.0580 h1         1 B8V       0.074700
     49 H4          -5.3360    -3.7590     0.5150 h1         1 B8V       0.044700
     50 H5          -5.1570    -3.8250    -1.2350 h1         1 B8V       0.044700
     51 H6          -4.4910    -6.2750    -0.3630 h1         1 B8V       0.030450
     52 H7          -4.4840    -5.6260     1.2770 h1         1 B8V       0.030450
     53 H8          -2.1080    -6.1510     1.5410 hc         1 B8V       0.046200
     54 H9          -2.9900    -7.5890     1.0450 hc         1 B8V       0.046200
     55 H10         -0.8350    -7.2900    -0.2470 hc         1 B8V       0.039200
     56 H11         -2.2500    -7.2950    -1.2870 hc         1 B8V       0.039200
     57 H12         -0.7640    -4.8170    -0.2980 hc         1 B8V       0.046200
     58 H13         -0.8090    -5.4110    -1.9500 hc         1 B8V       0.046200
     59 H14         -2.3680    -3.5340    -1.6220 h1         1 B8V       0.030450
     60 H15         -3.2130    -4.9980    -2.1160 h1         1 B8V       0.030450
     61 H16         -6.5520     3.6290     0.1220 ha         1 B8V       0.129000
     62 H17          1.5710     3.9500     1.5060 hc         1 B8V       0.058200
     63 H18          1.7640     4.4080    -0.1800 hc         1 B8V       0.058200
     64 H19          1.1530     6.3190     1.4220 h1         1 B8V       0.034700
     65 H20          0.1440     6.1730    -0.0160 h1         1 B8V       0.034700
     66 H21         -2.3450     5.5740     0.4380 h1         1 B8V       0.039700
     67 H22         -2.6260     4.6860     1.9290 h1         1 B8V       0.039700
     68 H23         -4.2080     4.2230     0.1920 ha         1 B8V       0.121000
     69 H24          1.8960     2.1680    -1.1690 h1         1 B8V       0.068200
     70 H25          0.8890     0.7660    -1.4870 h1         1 B8V       0.068200
     71 H26          2.2370     1.4980     1.1550 h1         1 B8V       0.080700
     72 H27          2.5420    -0.8700    -0.7310 h1         1 B8V       0.032700
     73 H28          3.6110     0.5160    -0.7190 h1         1 B8V       0.032700
     74 H29          3.6030    -2.6380     0.0330 h1         1 B8V       0.054200
     75 H30          4.6460    -2.5760     1.4420 h1         1 B8V       0.054200
     76 H31          6.0140    -2.7900    -0.5850 hc         1 B8V       0.044700
     77 H32          5.2810    -1.3630    -1.2920 hc         1 B8V       0.044700
     78 H33          6.9090    -1.4800     1.2780 hc         1 B8V       0.070700
     79 H34          6.6330     0.9500     1.4380 hc         1 B8V       0.044700
     80 H35          5.6790     0.9780    -0.0300 hc         1 B8V       0.044700
     81 H36          4.9700    -0.4330     2.5890 h1         1 B8V       0.054200
     82 H37          4.1980     1.0010     1.9510 h1         1 B8V       0.054200
     83 H38         11.2000    -1.1590    -0.6210 ha         1 B8V       0.117000
     84 H39         10.9120     0.0540    -2.7160 ha         1 B8V       0.112000
     85 H40          8.6530     0.8260    -3.4180 ha         1 B8V       0.115000
     86 H41          6.7150     0.3510    -1.9820 ha         1 B8V       0.109000
     87 H42         10.3080    -2.7160     2.4650 h1         1 B8V       0.040700
     88 H43         10.9230    -2.9170     0.8160 h1         1 B8V       0.040700
     89 H44         11.1600    -1.3790     1.6750 h1         1 B8V       0.040700
     90 H46         -0.9950     6.4190     2.1930 hn         1 B8V       0.416000
     91 H49          0.5350    -0.6800     0.6520 ho         1 B8V       0.444000
     92 C60          1.1840     1.4780    -0.7140 c3         1 B8V       0.038600
@<TRIPOS>BOND
     1     1     3 ar  
     2     1    13 1   
     3     1    20 ar  
     4     2    12 1   
     5     2    35 1   
     6     2    36 1   
     7     2    37 1   
     8     3     7 ar  
     9     3    46 1   
    10     4     5 1   
    11     4    45 1   
    12     4    47 1   
    13     4    48 1   
    14     5    38 1   
    15     5    49 1   
    16     5    50 1   
    17     6     8 1   
    18     6    38 1   
    19     6    51 1   
    20     6    52 1   
    21     7    12 ar  
    22     7    45 1   
    23     8     9 1   
    24     8    53 1   
    25     8    54 1   
    26     9    10 1   
    27     9    55 1   
    28     9    56 1   
    29    10    11 1   
    30    10    57 1   
    31    10    58 1   
    32    11    38 1   
    33    11    59 1   
    34    11    60 1   
    35    12    16 ar  
    36    13    14 1   
    37    13    40 2   
    38    14    15 2   
    39    14    19 1   
    40    15    17 1   
    41    15    39 1   
    42    16    20 ar  
    43    16    61 1   
    44    17    18 1   
    45    17    62 1   
    46    17    63 1   
    47    18    41 1   
    48    18    64 1   
    49    18    65 1   
    50    19    41 1   
    51    19    66 1   
    52    19    67 1   
    53    20    68 1   
    54    21    22 1   
    55    21    43 1   
    56    21    71 1   
    57    21    92 1   
    58    22    42 1   
    59    22    72 1   
    60    22    73 1   
    61    23    24 1   
    62    23    42 1   
    63    23    74 1   
    64    23    75 1   
    65    24    25 1   
    66    24    76 1   
    67    24    77 1   
    68    25    26 1   
    69    25    28 1   
    70    25    78 1   
    71    26    27 1   
    72    26    79 1   
    73    26    80 1   
    74    27    42 1   
    75    27    81 1   
    76    27    82 1   
    77    28    29 ar  
    78    28    33 ar  
    79    29    30 ar  
    80    29    44 1   
    81    30    31 ar  
    82    30    83 1   
    83    31    32 ar  
    84    31    84 1   
    85    32    33 ar  
    86    32    85 1   
    87    33    86 1   
    88    34    44 1   
    89    34    87 1   
    90    34    88 1   
    91    34    89 1   
    92    39    40 1   
    93    39    92 1   
    94    41    90 1   
    95    43    91 1   
    96    69    92 1   
    97    70    92 1   
@<TRIPOS>SUBSTRUCTURE
     1 B8V         1 TEMP              0 ****  ****    0 ROOT
