@<TRIPOS>MOLECULE
B8V
   92    97     1     0     0
SMALL
No Charge or Current Charge


@<TRIPOS>ATOM
      1 C1          -3.2870     2.0260    -0.2000 ca         1 B8V      -0.057500
      2 C13         -7.6790     1.6040    -0.2080 c3         1 B8V       0.358300
      3 C2          -3.9090     0.8260    -0.6190 ca         1 B8V      -0.114000
      4 C23         -4.9740    -2.1670    -0.2590 c3         1 B8V       0.040600
      5 C25         -5.5460    -3.5830    -0.4820 c3         1 B8V       0.176800
      6 C29         -5.6120    -5.9490     0.2010 c6         1 B8V       0.166800
      7 C3          -5.3080     0.6660    -0.6160 ca         1 B8V      -0.042000
      8 C30         -4.9830    -7.0390     1.1020 c6         1 B8V      -0.075400
      9 C31         -3.4930    -7.2540     0.7530 c6         1 B8V      -0.075400
     10 C32         -2.7390    -5.9070     0.8020 c6         1 B8V      -0.075400
     11 C33         -3.4320    -4.8450    -0.0880 c6         1 B8V       0.166800
     12 C4          -6.1430     1.7370    -0.2180 ca         1 B8V      -0.193300
     13 C40         -1.8040     2.1350    -0.2420 cc         1 B8V       0.307500
     14 C42         -0.9730     3.1420     0.3220 cc         1 B8V      -0.180300
     15 C43          0.3050     2.8540    -0.0310 cd         1 B8V      -0.129300
     16 C5          -5.5330     2.9490     0.1700 ca         1 B8V      -0.054000
     17 C51          1.5040     3.6720     0.3950 c6         1 B8V      -0.007100
     18 C52          1.0260     5.0210     0.9990 c6         1 B8V       0.165800
     19 C54         -1.3520     4.3180     1.1930 c6         1 B8V       0.244100
     20 C6          -4.1360     3.0920     0.1750 ca         1 B8V      -0.119000
     21 C62          2.2530     0.2150    -0.4200 c3         1 B8V       0.156300
     22 C66          3.5380    -0.3350    -1.0880 c3         1 B8V       0.138800
     23 C70          5.2950    -2.1020    -1.0240 c6         1 B8V       0.166800
     24 C71          6.5330    -1.2130    -1.3110 c6         1 B8V      -0.108400
     25 C72          7.1270    -0.6410     0.0050 c6         1 B8V      -0.007400
     26 C73          6.0140     0.0690     0.8250 c6         1 B8V      -0.108400
     27 C74          4.7940    -0.8650     1.0320 c6         1 B8V       0.166800
     28 C81          8.3350     0.2860    -0.2560 ca         1 B8V      -0.105300
     29 C83          9.6290    -0.0170     0.2420 ca         1 B8V       0.147100
     30 C84         10.7050     0.8620    -0.0240 ca         1 B8V      -0.197000
     31 C85         10.5010     2.0300    -0.7750 ca         1 B8V      -0.072000
     32 C86          9.2230     2.3310    -1.2670 ca         1 B8V      -0.147000
     33 C87          8.1490     1.4660    -1.0100 ca         1 B8V      -0.077000
     34 C96         11.0900    -1.5540     1.5220 c3         1 B8V       0.149900
     35 F17         -8.0950     0.6110     0.6110 f          1 B8V      -0.111000
     36 F19         -8.3040     2.7280     0.2150 f          1 B8V      -0.111000
     37 F21         -8.1710     1.3400    -1.4400 f          1 B8V      -0.111000
     38 N29         -4.8670    -4.6610     0.2850 n3         1 B8V      -0.719600
     39 N44          0.2220     1.6830    -0.7800 na         1 B8V       0.159800
     40 N45         -1.0870     1.2480    -0.9230 nd         1 B8V      -0.519800
     41 N53         -0.1450     4.8330     1.8990 n7         1 B8V      -0.863400
     42 N68          4.2440    -1.3650    -0.2660 n3         1 B8V      -0.710600
     43 O64          1.5790    -0.9060     0.1660 oh         1 B8V      -0.621000
     44 O94          9.8120    -1.1730     0.9810 os         1 B8V      -0.346100
     45 S23         -5.9980    -0.9070    -1.1440 ss         1 B8V      -0.151000
     46 H1          -3.2940    -0.0060    -0.9500 ha         1 B8V       0.136000
     47 H2          -4.9760    -1.9350     0.8130 h1         1 B8V       0.074700
     48 H3          -3.9450    -2.1170    -0.6310 h1         1 B8V       0.074700
     49 H4          -6.6070    -3.5530    -0.1960 h1         1 B8V       0.044700
     50 H5          -5.5120    -3.8080    -1.5560 h1         1 B8V       0.044700
     51 H6          -5.6290    -6.3100    -0.8390 h1         1 B8V       0.030450
     52 H7          -6.6580    -5.8040     0.5080 h1         1 B8V       0.030450
     53 H8          -5.0790    -6.7430     2.1560 hc         1 B8V       0.046200
     54 H9          -5.5350    -7.9810     0.9890 hc         1 B8V       0.046200
     55 H10         -3.0380    -7.9700     1.4520 hc         1 B8V       0.039200
     56 H11         -3.4070    -7.6920    -0.2510 hc         1 B8V       0.039200
     57 H12         -2.6960    -5.5430     1.8380 hc         1 B8V       0.046200
     58 H13         -1.7000    -6.0450     0.4740 hc         1 B8V       0.046200
     59 H14         -2.8760    -3.9030     0.0190 h1         1 B8V       0.030450
     60 H15         -3.3510    -5.1510    -1.1420 h1         1 B8V       0.030450
     61 H16         -6.1360     3.8050     0.4670 ha         1 B8V       0.129000
     62 H17          2.0800     3.1240     1.1520 hc         1 B8V       0.058200
     63 H18          2.1830     3.8580    -0.4480 hc         1 B8V       0.058200
     64 H19          1.8540     5.4860     1.5560 h1         1 B8V       0.034700
     65 H20          0.7480     5.7080     0.1850 h1         1 B8V       0.034700
     66 H21         -1.7730     5.1240     0.5740 h1         1 B8V       0.039700
     67 H22         -2.1040     4.0300     1.9420 h1         1 B8V       0.039700
     68 H23         -3.7430     4.0630     0.4420 ha         1 B8V       0.121000
     69 H24          1.9360     1.6960    -1.9690 h1         1 B8V       0.068200
     70 H25          0.9340     0.2500    -2.1470 h1         1 B8V       0.068200
     71 H26          2.5610     0.9170     0.3660 h1         1 B8V       0.080700
     72 H27          3.2480    -0.7840    -2.0480 h1         1 B8V       0.032700
     73 H28          4.2010     0.5070    -1.3240 h1         1 B8V       0.032700
     74 H29          4.8910    -2.4800    -1.9750 h1         1 B8V       0.054200
     75 H30          5.6200    -2.9820    -0.4500 h1         1 B8V       0.054200
     76 H31          7.2960    -1.8080    -1.8310 hc         1 B8V       0.044700
     77 H32          6.2560    -0.4020    -1.9970 hc         1 B8V       0.044700
     78 H33          7.4490    -1.5040     0.6020 hc         1 B8V       0.070700
     79 H34          6.4130     0.3680     1.8040 hc         1 B8V       0.044700
     80 H35          5.6950     0.9940     0.3300 hc         1 B8V       0.044700
     81 H36          5.1110    -1.7190     1.6500 h1         1 B8V       0.054200
     82 H37          4.0270    -0.3350     1.6140 h1         1 B8V       0.054200
     83 H38         11.7060     0.6580     0.3430 ha         1 B8V       0.117000
     84 H39         11.3330     2.7030    -0.9760 ha         1 B8V       0.112000
     85 H40          9.0650     3.2360    -1.8500 ha         1 B8V       0.115000
     86 H41          7.1660     1.7180    -1.4020 ha         1 B8V       0.109000
     87 H42         11.0020    -2.5010     2.0700 h1         1 B8V       0.040700
     88 H43         11.8280    -1.6920     0.7220 h1         1 B8V       0.040700
     89 H44         11.4620    -0.7920     2.2190 h1         1 B8V       0.040700
     90 H46         -0.3860     5.7320     2.3360 hn         1 B8V       0.416000
     91 H49          2.3070    -1.5670     0.2670 ho         1 B8V       0.444000
     92 C60          1.3370     0.9620    -1.4170 c3         1 B8V       0.038600
@<TRIPOS>BOND
     1     1     3 ar  
     2     1    13 1   
     3     1    20 ar  
     4     2    12 1   
     5     2    35 1   
     6     2    36 1   
     7     2    37 1   
     8     3     7 ar  
     9     3    46 1   
    10     4     5 1   
    11     4    45 1   
    12     4    47 1   
    13     4    48 1   
    14     5    38 1   
    15     5    49 1   
    16     5    50 1   
    17     6     8 1   
    18     6    38 1   
    19     6    51 1   
    20     6    52 1   
    21     7    12 ar  
    22     7    45 1   
    23     8     9 1   
    24     8    53 1   
    25     8    54 1   
    26     9    10 1   
    27     9    55 1   
    28     9    56 1   
    29    10    11 1   
    30    10    57 1   
    31    10    58 1   
    32    11    38 1   
    33    11    59 1   
    34    11    60 1   
    35    12    16 ar  
    36    13    14 1   
    37    13    40 2   
    38    14    15 2   
    39    14    19 1   
    40    15    17 1   
    41    15    39 1   
    42    16    20 ar  
    43    16    61 1   
    44    17    18 1   
    45    17    62 1   
    46    17    63 1   
    47    18    41 1   
    48    18    64 1   
    49    18    65 1   
    50    19    41 1   
    51    19    66 1   
    52    19    67 1   
    53    20    68 1   
    54    21    22 1   
    55    21    43 1   
    56    21    71 1   
    57    21    92 1   
    58    22    42 1   
    59    22    72 1   
    60    22    73 1   
    61    23    24 1   
    62    23    42 1   
    63    23    74 1   
    64    23    75 1   
    65    24    25 1   
    66    24    76 1   
    67    24    77 1   
    68    25    26 1   
    69    25    28 1   
    70    25    78 1   
    71    26    27 1   
    72    26    79 1   
    73    26    80 1   
    74    27    42 1   
    75    27    81 1   
    76    27    82 1   
    77    28    29 ar  
    78    28    33 ar  
    79    29    30 ar  
    80    29    44 1   
    81    30    31 ar  
    82    30    83 1   
    83    31    32 ar  
    84    31    84 1   
    85    32    33 ar  
    86    32    85 1   
    87    33    86 1   
    88    34    44 1   
    89    34    87 1   
    90    34    88 1   
    91    34    89 1   
    92    39    40 1   
    93    39    92 1   
    94    41    90 1   
    95    43    91 1   
    96    69    92 1   
    97    70    92 1   
@<TRIPOS>SUBSTRUCTURE
     1 B8V         1 TEMP              0 ****  ****    0 ROOT
