@<TRIPOS>MOLECULE
B8X
   57    60     1     0     0
SMALL
abcg2


@<TRIPOS>ATOM
      1 C5           1.5240     0.6840     0.8750 ca         1 B8X      -0.087000
      2 C4           2.9140     0.7050     0.8530 ca         1 B8X      -0.041300
      3 C3           3.5650     1.5940    -0.0180 ca         1 B8X      -0.046300
      4 C6           0.7510     1.4720     0.0250 cp         1 B8X      -0.062000
      5 C11         -1.4700     1.4690    -1.1110 ca         1 B8X      -0.125000
      6 C10         -0.7200     1.3950     0.0650 cp         1 B8X       0.034000
      7 C1           1.4060     2.3280    -0.8560 ca         1 B8X      -0.087000
      8 C8          -2.7740     1.1500     1.3230 ca         1 B8X      -0.014000
      9 C12         -2.8510     1.3840    -1.0830 ca         1 B8X      -0.014000
     10 O1          -5.8070     1.7760    -0.9860 o          1 B8X      -0.523000
     11 O2          -5.7170     1.4950     1.5100 o          1 B8X      -0.523000
     12 C20         -5.5560    -0.6640    -0.0090 c3         1 B8X      -0.309400
     13 C21         -7.0500    -0.9550    -0.0360 c3         1 B8X       0.191600
     14 O3          -7.1830    -2.3490    -0.1720 oh         1 B8X      -0.653000
     15 C7          -3.4930     1.2210     0.1370 ca         1 B8X      -0.272500
     16 C9          -1.3940     1.2390     1.2790 ca         1 B8X      -0.125000
     17 C24          5.0630     1.7060    -0.1070 c3         1 B8X      -0.035100
     18 C25          5.6670     0.7850    -1.1690 c3         1 B8X      -0.080400
     19 C26          7.1780     0.9310    -1.2640 c3         1 B8X      -0.087100
     20 C23          2.7890     2.3910    -0.8570 ca         1 B8X      -0.113000
     21 C13          3.7060    -0.1920     1.7370 cx         1 B8X      -0.068400
     22 C30          3.1180    -1.3080     2.5330 cx         1 B8X      -0.111400
     23 C14          3.9850    -1.6490     1.3640 cx         1 B8X      -0.170000
     24 C18          3.4590    -2.2390     0.1100 ca         1 B8X       0.388300
     25 N1           4.3850    -2.5360    -0.8030 nb         1 B8X      -0.678000
     26 C19          4.0050    -3.0470    -1.9660 ca         1 B8X       0.342900
     27 C15          2.6820    -3.2970    -2.2960 ca         1 B8X      -0.166000
     28 C16          1.7160    -3.0070    -1.3450 ca         1 B8X      -0.071000
     29 C17          2.1060    -2.4790    -0.1260 ca         1 B8X      -0.152000
     30 H1           1.0190     0.0250     1.5700 ha         1 B8X       0.111000
     31 H2          -0.9710     1.5770    -2.0650 ha         1 B8X       0.123500
     32 H3           0.8420     2.9740    -1.5180 ha         1 B8X       0.117000
     33 H4          -3.2760     1.0380     2.2740 ha         1 B8X       0.137500
     34 H5          -3.4130     1.4410    -2.0060 ha         1 B8X       0.137500
     35 H6          -5.0740    -0.9740    -0.9380 h1         1 B8X       0.106200
     36 H7          -5.0680    -1.1660     0.8290 h1         1 B8X       0.106200
     37 H8          -7.5140    -0.5910     0.8870 h1         1 B8X       0.037700
     38 H9          -7.5110    -0.4180    -0.8730 h1         1 B8X       0.037700
     39 H10         -8.1220    -2.5550    -0.2010 ho         1 B8X       0.447000
     40 H11         -0.8380     1.2080     2.2060 ha         1 B8X       0.123500
     41 H12          5.3260     2.7400    -0.3460 hc         1 B8X       0.045700
     42 H13          5.5290     1.4900     0.8560 hc         1 B8X       0.045700
     43 H14          5.4070    -0.2510    -0.9470 hc         1 B8X       0.051700
     44 H15          5.2140     1.0150    -2.1380 hc         1 B8X       0.051700
     45 H16          7.5910     0.2740    -2.0300 hc         1 B8X       0.031033
     46 H17          7.4650     1.9530    -1.5160 hc         1 B8X       0.031033
     47 H18          7.6620     0.6780    -0.3180 hc         1 B8X       0.031033
     48 H19          3.2840     3.0860    -1.5260 ha         1 B8X       0.116000
     49 H20          4.5600     0.2870     2.2020 hc         1 B8X       0.087700
     50 H21          3.5220    -1.4850     3.5210 hc         1 B8X       0.074200
     51 H22          2.0570    -1.5100     2.4660 hc         1 B8X       0.074200
     52 H23          4.9940    -1.9740     1.5850 hc         1 B8X       0.100700
     53 H24          4.7960    -3.2740    -2.6720 h4         1 B8X       0.018100
     54 H25          2.4230    -3.7130    -3.2590 ha         1 B8X       0.124000
     55 H26          0.6690    -3.1960    -1.5460 ha         1 B8X       0.118000
     56 H27          1.3620    -2.2810     0.6310 ha         1 B8X       0.120000
     57 S1          -5.2570     1.0910     0.1830 sy         1 B8X       1.051500
@<TRIPOS>BOND
     1     1     2 ar  
     2     1     4 ar  
     3     1    30 1   
     4     2     3 ar  
     5     2    21 1   
     6     3    17 1   
     7     3    20 ar  
     8     4     6 1   
     9     4     7 ar  
    10     5     6 ar  
    11     5     9 ar  
    12     5    31 1   
    13     6    16 ar  
    14     7    20 ar  
    15     7    32 1   
    16     8    15 ar  
    17     8    16 ar  
    18     8    33 1   
    19     9    15 ar  
    20     9    34 1   
    21    10    57 2   
    22    11    57 2   
    23    12    13 1   
    24    12    35 1   
    25    12    36 1   
    26    12    57 1   
    27    13    14 1   
    28    13    37 1   
    29    13    38 1   
    30    14    39 1   
    31    15    57 1   
    32    16    40 1   
    33    17    18 1   
    34    17    41 1   
    35    17    42 1   
    36    18    19 1   
    37    18    43 1   
    38    18    44 1   
    39    19    45 1   
    40    19    46 1   
    41    19    47 1   
    42    20    48 1   
    43    21    22 1   
    44    21    23 1   
    45    21    49 1   
    46    22    23 1   
    47    22    50 1   
    48    22    51 1   
    49    23    24 1   
    50    23    52 1   
    51    24    25 ar  
    52    24    29 ar  
    53    25    26 ar  
    54    26    27 ar  
    55    26    53 1   
    56    27    28 ar  
    57    27    54 1   
    58    28    29 ar  
    59    28    55 1   
    60    29    56 1   
@<TRIPOS>SUBSTRUCTURE
     1 B8X         1 TEMP              0 ****  ****    0 ROOT
