@<TRIPOS>MOLECULE
B8X
   57    60     1     0     0
SMALL
No Charge or Current Charge


@<TRIPOS>ATOM
      1 C5           1.2670     0.5480     0.9590 ca         1 B8X      -0.087000
      2 C4           2.6770     0.5050     0.8980 ca         1 B8X      -0.041300
      3 C3           3.3530     1.2740    -0.0850 ca         1 B8X      -0.046300
      4 C6           0.5000     1.3170     0.0520 cp         1 B8X      -0.062000
      5 C11         -1.7860     1.4190    -1.0470 ca         1 B8X      -0.125000
      6 C10         -0.9960     1.3390     0.1270 cp         1 B8X       0.034000
      7 C1           1.1940     2.0680    -0.9220 ca         1 B8X      -0.087000
      8 C8          -3.0740     1.3000     1.4440 ca         1 B8X      -0.014000
      9 C12         -3.1890     1.4390    -0.9850 ca         1 B8X      -0.014000
     10 O1          -6.1690     2.0170    -0.8720 o          1 B8X      -0.523000
     11 O2          -6.0470     1.8710     1.6800 o          1 B8X      -0.523000
     12 C20         -6.0640    -0.3490     0.2710 c3         1 B8X      -0.309400
     13 C21         -7.5780    -0.5610     0.3310 c3         1 B8X       0.191600
     14 O3          -7.8300    -1.9650     0.2630 oh         1 B8X      -0.653000
     15 C7          -3.8400     1.3820     0.2640 ca         1 B8X      -0.272500
     16 C9          -1.6710     1.2790     1.3710 ca         1 B8X      -0.125000
     17 C24          4.8820     1.3170    -0.2010 c3         1 B8X      -0.035100
     18 C25          5.3980     0.8270    -1.5750 c3         1 B8X      -0.080400
     19 C26          6.9330     0.7070    -1.6380 c3         1 B8X      -0.087100
     20 C23          2.5950     2.0520    -0.9830 ca         1 B8X      -0.113000
     21 C13          3.4170    -0.3390     1.9090 cx         1 B8X      -0.068400
     22 C30          2.8940    -1.6770     2.3910 cx         1 B8X      -0.111400
     23 C14          4.1530    -1.6200     1.5540 cx         1 B8X      -0.170000
     24 C18          4.2310    -2.1780     0.1520 ca         1 B8X       0.388300
     25 N1           5.4510    -2.6340    -0.2190 nb         1 B8X      -0.678000
     26 C19          5.5960    -3.1370    -1.4650 ca         1 B8X       0.342900
     27 C15          4.5390    -3.2130    -2.3870 ca         1 B8X      -0.166000
     28 C16          3.2700    -2.7520    -2.0080 ca         1 B8X      -0.071000
     29 C17          3.1160    -2.2290    -0.7140 ca         1 B8X      -0.152000
     30 H1           0.7540    -0.0360     1.7180 ha         1 B8X       0.111000
     31 H2          -1.3050     1.4520    -2.0220 ha         1 B8X       0.123500
     32 H3           0.6450     2.6890    -1.6250 ha         1 B8X       0.117000
     33 H4          -3.5580     1.2530     2.4190 ha         1 B8X       0.137500
     34 H5          -3.7630     1.4950    -1.9080 ha         1 B8X       0.137500
     35 H6          -5.6570    -0.7360    -0.6680 h1         1 B8X       0.106200
     36 H7          -5.5720    -0.8380     1.1170 h1         1 B8X       0.106200
     37 H8          -7.9770    -0.1440     1.2660 h1         1 B8X       0.037700
     38 H9          -8.0610    -0.0430    -0.5100 h1         1 B8X       0.037700
     39 H10         -8.8050    -2.0830     0.3020 ho         1 B8X       0.447000
     40 H11         -1.1000     1.2300     2.2950 ha         1 B8X       0.123500
     41 H12          5.2260     2.3470    -0.0450 hc         1 B8X       0.045700
     42 H13          5.3680     0.7270     0.5840 hc         1 B8X       0.045700
     43 H14          4.9560    -0.1490    -1.8030 hc         1 B8X       0.051700
     44 H15          5.0650     1.5140    -2.3620 hc         1 B8X       0.051700
     45 H16          7.2480     0.3610    -2.6300 hc         1 B8X       0.031033
     46 H17          7.4070     1.6770    -1.4450 hc         1 B8X       0.031033
     47 H18          7.2970    -0.0120    -0.8940 hc         1 B8X       0.031033
     48 H19          3.0950     2.6610    -1.7330 ha         1 B8X       0.116000
     49 H20          3.8860     0.2850     2.6670 hc         1 B8X       0.087700
     50 H21          3.0010    -1.9080     3.4480 hc         1 B8X       0.074200
     51 H22          1.9960    -2.0840     1.9350 hc         1 B8X       0.074200
     52 H23          5.0800    -1.7880     2.0960 hc         1 B8X       0.100700
     53 H24          6.5920    -3.4910    -1.7330 h4         1 B8X       0.018100
     54 H25          4.7090    -3.6260    -3.3770 ha         1 B8X       0.124000
     55 H26          2.4280    -2.7980    -2.6960 ha         1 B8X       0.118000
     56 H27          2.1460    -1.8650    -0.3950 ha         1 B8X       0.120000
     57 S1          -5.6430     1.3960     0.3510 sy         1 B8X       1.051500
@<TRIPOS>BOND
     1     1     2 ar  
     2     1     4 ar  
     3     1    30 1   
     4     2     3 ar  
     5     2    21 1   
     6     3    17 1   
     7     3    20 ar  
     8     4     6 1   
     9     4     7 ar  
    10     5     6 ar  
    11     5     9 ar  
    12     5    31 1   
    13     6    16 ar  
    14     7    20 ar  
    15     7    32 1   
    16     8    15 ar  
    17     8    16 ar  
    18     8    33 1   
    19     9    15 ar  
    20     9    34 1   
    21    10    57 2   
    22    11    57 2   
    23    12    13 1   
    24    12    35 1   
    25    12    36 1   
    26    12    57 1   
    27    13    14 1   
    28    13    37 1   
    29    13    38 1   
    30    14    39 1   
    31    15    57 1   
    32    16    40 1   
    33    17    18 1   
    34    17    41 1   
    35    17    42 1   
    36    18    19 1   
    37    18    43 1   
    38    18    44 1   
    39    19    45 1   
    40    19    46 1   
    41    19    47 1   
    42    20    48 1   
    43    21    22 1   
    44    21    23 1   
    45    21    49 1   
    46    22    23 1   
    47    22    50 1   
    48    22    51 1   
    49    23    24 1   
    50    23    52 1   
    51    24    25 ar  
    52    24    29 ar  
    53    25    26 ar  
    54    26    27 ar  
    55    26    53 1   
    56    27    28 ar  
    57    27    54 1   
    58    28    29 ar  
    59    28    55 1   
    60    29    56 1   
@<TRIPOS>SUBSTRUCTURE
     1 B8X         1 TEMP              0 ****  ****    0 ROOT
