@<TRIPOS>MOLECULE
B8Y
   79    84     1     0     0
SMALL
abcg2


@<TRIPOS>ATOM
      1 C26         -5.1240     0.1750    -0.2080 c6         1 B8Y      -0.093900
      2 C29         -5.5370    -2.5910    -0.9010 c6         1 B8Y       0.168300
      3 C30         -6.5260    -1.5370    -1.3740 c6         1 B8Y      -0.093900
      4 C1         -10.2180     1.1280     1.7370 ca         1 B8Y       0.117000
      5 C14         -7.4890     1.4090    -1.8950 c          1 B8Y       0.596000
      6 C2          -9.0530     0.5470     1.2440 ca         1 B8Y      -0.107000
      7 C20         -6.5350    -0.3710    -0.3930 c6         1 B8Y       0.139700
      8 C27         -4.1930    -0.9550     0.2080 c6         1 B8Y       0.168300
      9 C3          -8.6010     1.0050     0.0230 ca         1 B8Y       0.015600
     10 C39         -1.8040    -2.6670    -0.7730 c3         1 B8Y      -0.096400
     11 C4          -9.2850     2.0050    -0.6760 ca         1 B8Y       0.004600
     12 C41         -0.8310    -3.7510    -0.3320 c3         1 B8Y       0.083000
     13 C45          1.2660    -2.5590     0.0720 c          1 B8Y       0.429700
     14 C46          2.6230    -2.3000    -0.4160 cc         1 B8Y       0.389900
     15 C48          2.3550    -3.7350    -2.1830 cd         1 B8Y      -0.096400
     16 C49          1.0800    -4.0130    -1.8170 cc         1 B8Y      -0.073400
     17 C5         -10.4390     2.5730    -0.1760 ca         1 B8Y      -0.103000
     18 C6         -10.9080     2.1200     1.0550 ca         1 B8Y      -0.103000
     19 C60          3.5000    -1.3810     0.3350 ca         1 B8Y      -0.116900
     20 C62          3.0380    -0.1990     0.9100 ca         1 B8Y      -0.056000
     21 C63          3.9170     0.6560     1.5550 ca         1 B8Y      -0.117000
     22 C64          5.2590     0.3270     1.6430 ca         1 B8Y       0.144000
     23 C65          5.7570    -0.8490     1.0850 ca         1 B8Y      -0.120300
     24 C66          4.8600    -1.6780     0.4270 ca         1 B8Y      -0.060000
     25 C75          7.2110    -1.2270     1.1740 c3         1 B8Y       0.150300
     26 C79          9.1330     0.2810     0.8720 c          1 B8Y       0.621700
     27 C83          9.7840     1.2580    -0.0530 ca         1 B8Y      -0.168600
     28 C85         11.1470     1.5030     0.0990 ca         1 B8Y      -0.045500
     29 C86         11.8010     2.4120    -0.7150 ca         1 B8Y      -0.164000
     30 C87         11.0670     3.0870    -1.6730 ca         1 B8Y       0.191000
     31 C88          9.7110     2.8840    -1.8400 ca         1 B8Y      -0.164000
     32 C89          9.0740     1.9630    -1.0230 ca         1 B8Y      -0.045500
     33 F96         11.6910     3.9720    -2.4610 f          1 B8Y      -0.175000
     34 N13         -8.5880     2.2340    -1.8370 n          1 B8Y      -0.292000
     35 N15         -7.5060     0.6550    -0.7390 n          1 B8Y      -0.291000
     36 N28         -4.2010    -2.0380    -0.7610 n3         1 B8Y      -0.716600
     37 N43          0.5490    -3.4440    -0.7090 n          1 B8Y      -0.259000
     38 N47          3.1140    -2.8760    -1.4700 nd         1 B8Y      -0.507300
     39 N77          8.0340    -0.3300     0.3960 ns         1 B8Y      -0.501900
     40 O58         -6.6670     1.3590    -2.7920 o          1 B8Y      -0.558000
     41 O81          9.5950     0.0660     1.9830 o          1 B8Y      -0.598100
     42 CL24       -10.8250     0.5850     3.2710 cl         1 B8Y      -0.203000
     43 CL73         6.3220     1.4020     2.4870 cl         1 B8Y      -0.186000
     44 H1          -4.7650     0.6200    -1.1380 hc         1 B8Y       0.067950
     45 H2          -5.1170     0.9520     0.5580 hc         1 B8Y       0.067950
     46 H3          -5.8980    -3.0270     0.0490 h1         1 B8Y       0.033950
     47 H4          -5.5050    -3.4060    -1.6270 h1         1 B8Y       0.033950
     48 H5          -6.2410    -1.1920    -2.3690 hc         1 B8Y       0.067950
     49 H6          -7.5220    -1.9790    -1.4450 hc         1 B8Y       0.067950
     50 H7          -8.5380    -0.2220     1.8030 ha         1 B8Y       0.137000
     51 H8          -6.8570    -0.7640     0.5760 h1         1 B8Y       0.051700
     52 H9          -9.0260     4.1880    -2.4290 h1         1 B8Y       0.052367
     53 H10         -8.2050     3.1900    -3.6330 h1         1 B8Y       0.052367
     54 H11         -9.9200     2.9260    -3.2940 h1         1 B8Y       0.052367
     55 H12         -3.1810    -0.5580     0.3070 h1         1 B8Y       0.033950
     56 H13         -4.4880    -1.3190     1.2090 h1         1 B8Y       0.033950
     57 H14         -3.4860    -3.9650    -0.9990 h1         1 B8Y       0.030700
     58 H15         -3.2950    -3.3530     0.6350 h1         1 B8Y       0.030700
     59 H16         -1.7210    -2.5130    -1.8520 hc         1 B8Y       0.065200
     60 H17         -1.5340    -1.7260    -0.2900 hc         1 B8Y       0.065200
     61 H18         -0.8700    -3.8900     0.7480 h1         1 B8Y       0.064200
     62 H19         -1.0850    -4.7050    -0.7910 h1         1 B8Y       0.064200
     63 H21          2.7930    -4.1910    -3.0580 h4         1 B8Y       0.227000
     64 H22          0.4470    -4.6880    -2.3730 h4         1 B8Y       0.210000
     65 H24        -10.9730     3.3440    -0.7150 ha         1 B8Y       0.128000
     66 H25        -11.8090     2.5440     1.4750 ha         1 B8Y       0.133000
     67 H26          1.9970     0.0820     0.8470 ha         1 B8Y       0.134000
     68 H27          3.5530     1.5770     1.9900 ha         1 B8Y       0.133000
     69 H28          5.2310    -2.5930    -0.0170 ha         1 B8Y       0.128000
     70 H29          7.5550    -1.1960     2.2070 h1         1 B8Y       0.069200
     71 H30          7.3370    -2.2550     0.8260 h1         1 B8Y       0.069200
     72 H31         11.7090     0.9750     0.8570 ha         1 B8Y       0.129500
     73 H32         12.8610     2.5950    -0.6050 ha         1 B8Y       0.135500
     74 H33          9.1590     3.4370    -2.5880 ha         1 B8Y       0.135500
     75 H34          8.0070     1.8260    -1.1430 ha         1 B8Y       0.129500
     76 H36          7.7880    -0.2160    -0.5740 hn         1 B8Y       0.317500
     77 C37         -3.2320    -3.0670    -0.4290 c3         1 B8Y       0.173800
     78 C22         -8.9590     3.1870    -2.8520 c3         1 B8Y       0.104300
     79 O56          0.7820    -2.0690     1.0830 o          1 B8Y      -0.538000
@<TRIPOS>BOND
     1     1     7 1   
     2     1     8 1   
     3     1    44 1   
     4     1    45 1   
     5     2     3 1   
     6     2    36 1   
     7     2    46 1   
     8     2    47 1   
     9     3     7 1   
    10     3    48 1   
    11     3    49 1   
    12     4     6 ar  
    13     4    18 ar  
    14     4    42 1   
    15     5    34 1   
    16     5    35 1   
    17     5    40 2   
    18     6     9 ar  
    19     6    50 1   
    20     7    35 1   
    21     7    51 1   
    22     8    36 1   
    23     8    55 1   
    24     8    56 1   
    25     9    11 ar  
    26     9    35 1   
    27    10    12 1   
    28    10    59 1   
    29    10    60 1   
    30    10    77 1   
    31    11    17 ar  
    32    11    34 1   
    33    12    37 1   
    34    12    61 1   
    35    12    62 1   
    36    13    14 1   
    37    13    37 1   
    38    13    79 2   
    39    14    19 1   
    40    14    38 2   
    41    15    16 2   
    42    15    38 1   
    43    15    63 1   
    44    16    37 1   
    45    16    64 1   
    46    17    18 ar  
    47    17    65 1   
    48    18    66 1   
    49    19    20 ar  
    50    19    24 ar  
    51    20    21 ar  
    52    20    67 1   
    53    21    22 ar  
    54    21    68 1   
    55    22    23 ar  
    56    22    43 1   
    57    23    24 ar  
    58    23    25 1   
    59    24    69 1   
    60    25    39 1   
    61    25    70 1   
    62    25    71 1   
    63    26    27 1   
    64    26    39 1   
    65    26    41 2   
    66    27    28 ar  
    67    27    32 ar  
    68    28    29 ar  
    69    28    72 1   
    70    29    30 ar  
    71    29    73 1   
    72    30    31 ar  
    73    30    33 1   
    74    31    32 ar  
    75    31    74 1   
    76    32    75 1   
    77    34    78 1   
    78    36    77 1   
    79    39    76 1   
    80    52    78 1   
    81    53    78 1   
    82    54    78 1   
    83    57    77 1   
    84    58    77 1   
@<TRIPOS>SUBSTRUCTURE
     1 B8Y         1 TEMP              0 ****  ****    0 ROOT
