@<TRIPOS>MOLECULE
B8Y
   79    84     1     0     0
SMALL
No Charge or Current Charge


@<TRIPOS>ATOM
      1 C26         -5.4490     0.3600    -0.5590 c6         1 B8Y      -0.093900
      2 C29         -5.6210    -2.5730    -0.7090 c6         1 B8Y       0.168300
      3 C30         -6.7810    -1.7020    -1.2380 c6         1 B8Y      -0.093900
      4 C1         -10.1880     1.6090     1.9220 ca         1 B8Y       0.117000
      5 C14         -8.2200     0.9170    -2.2310 c          1 B8Y       0.596000
      6 C2          -9.0750     0.9710     1.3390 ca         1 B8Y      -0.107000
      7 C20         -6.8160    -0.3500    -0.4910 c6         1 B8Y       0.139700
      8 C27         -4.3240    -0.5780    -0.0650 c6         1 B8Y       0.168300
      9 C3          -9.0310     0.8610    -0.0600 ca         1 B8Y       0.015600
     10 C39         -1.7830    -2.2010    -0.7740 c3         1 B8Y      -0.096400
     11 C4          -9.9970     1.4700    -0.8530 ca         1 B8Y       0.004600
     12 C41         -0.6640    -3.2370    -0.5470 c3         1 B8Y       0.083000
     13 C45          1.4990    -2.2100     0.1650 c          1 B8Y       0.429700
     14 C46          2.8340    -1.7040    -0.3150 cc         1 B8Y       0.389900
     15 C48          2.3980    -2.2450    -2.5500 cd         1 B8Y      -0.096400
     16 C49          1.1460    -2.7050    -2.1760 cc         1 B8Y      -0.073400
     17 C5         -11.0560     2.1970    -0.2920 ca         1 B8Y      -0.103000
     18 C6         -11.1750     2.2170     1.1140 ca         1 B8Y      -0.103000
     19 C60          3.7780    -1.1570     0.6790 ca         1 B8Y      -0.116900
     20 C62          3.3520    -0.2140     1.6390 ca         1 B8Y      -0.056000
     21 C63          4.2670     0.3360     2.5510 ca         1 B8Y      -0.117000
     22 C64          5.6200    -0.0330     2.5110 ca         1 B8Y       0.144000
     23 C65          6.0710    -0.9570     1.5440 ca         1 B8Y      -0.120300
     24 C66          5.1480    -1.5020     0.6280 ca         1 B8Y      -0.060000
     25 C75          7.5350    -1.3680     1.4610 c3         1 B8Y       0.150300
     26 C79          9.6810    -0.4480     0.5430 c          1 B8Y       0.621700
     27 C83         10.3250     0.6780    -0.2410 ca         1 B8Y      -0.168600
     28 C85         11.7230     0.6560    -0.4590 ca         1 B8Y      -0.045500
     29 C86         12.3520     1.6850    -1.1810 ca         1 B8Y      -0.164000
     30 C87         11.5940     2.7450    -1.6940 ca         1 B8Y       0.191000
     31 C88         10.2090     2.7850    -1.4890 ca         1 B8Y      -0.164000
     32 C89          9.5720     1.7590    -0.7670 ca         1 B8Y      -0.045500
     33 F96         12.2010     3.7320    -2.3880 f          1 B8Y      -0.175000
     34 N13         -9.4830     1.5200    -2.1760 n          1 B8Y      -0.292000
     35 N15         -7.9310     0.5330    -0.9080 n          1 B8Y      -0.291000
     36 N28         -4.3110    -1.8700    -0.8160 n3         1 B8Y      -0.716600
     37 N43          0.6830    -2.7040    -0.8670 n          1 B8Y      -0.259000
     38 N47          3.2750    -1.7310    -1.5870 nd         1 B8Y      -0.507300
     39 N77          8.3180    -0.3820     0.7190 ns         1 B8Y      -0.501900
     40 O58         -7.5350     0.7390    -3.2290 o          1 B8Y      -0.558000
     41 O81         10.3300    -1.3770     1.0040 o          1 B8Y      -0.598100
     42 Cl24       -10.3060     1.7220     3.6730 cl         1 B8Y      -0.203000
     43 Cl73         6.7300     0.6960     3.6710 cl         1 B8Y      -0.186000
     44 H1          -5.2360     0.6720    -1.5890 hc         1 B8Y       0.067950
     45 H2          -5.4670     1.2720     0.0530 hc         1 B8Y       0.067950
     46 H3          -5.8210    -2.8440     0.3380 h1         1 B8Y       0.033950
     47 H4          -5.5980    -3.5090    -1.2860 h1         1 B8Y       0.033950
     48 H5          -6.6470    -1.5470    -2.3150 hc         1 B8Y       0.067950
     49 H6          -7.7340    -2.2310    -1.1060 hc         1 B8Y       0.067950
     50 H7          -8.2740     0.5870     1.9630 ha         1 B8Y       0.137000
     51 H8          -6.9820    -0.5970     0.5660 h1         1 B8Y       0.051700
     52 H9         -10.8240     2.7970    -3.1930 h1         1 B8Y       0.052367
     53 H10         -9.6240     1.9910    -4.2380 h1         1 B8Y       0.052367
     54 H11        -10.9960     1.0570    -3.5730 h1         1 B8Y       0.052367
     55 H12         -3.3700    -0.0460    -0.1830 h1         1 B8Y       0.033950
     56 H13         -4.4580    -0.7670     1.0100 h1         1 B8Y       0.033950
     57 H14         -3.2900    -3.7110    -0.9890 h1         1 B8Y       0.030700
     58 H15         -3.2280    -2.9990     0.6250 h1         1 B8Y       0.030700
     59 H16         -1.7640    -1.8700    -1.8190 hc         1 B8Y       0.065200
     60 H17         -1.5760    -1.3250    -0.1500 hc         1 B8Y       0.065200
     61 H18         -0.6980    -3.5890     0.4920 h1         1 B8Y       0.064200
     62 H19         -0.8540    -4.1130    -1.1820 h1         1 B8Y       0.064200
     63 H21          2.7390    -2.2640    -3.5840 h4         1 B8Y       0.227000
     64 H22          0.4190    -3.1110    -2.8730 h4         1 B8Y       0.210000
     65 H24        -11.7600     2.7410    -0.9180 ha         1 B8Y       0.128000
     66 H25        -12.0010     2.7490     1.5800 ha         1 B8Y       0.133000
     67 H26          2.3130     0.1060     1.6770 ha         1 B8Y       0.134000
     68 H27          3.9280     1.0590     3.2890 ha         1 B8Y       0.133000
     69 H28          5.4970    -2.2080    -0.1230 ha         1 B8Y       0.128000
     70 H29          7.9560    -1.4830     2.4690 h1         1 B8Y       0.069200
     71 H30          7.6220    -2.3390     0.9550 h1         1 B8Y       0.069200
     72 H31         12.3280    -0.1600    -0.0680 ha         1 B8Y       0.129500
     73 H32         13.4270     1.6600    -1.3440 ha         1 B8Y       0.135500
     74 H33          9.6280     3.6110    -1.8900 ha         1 B8Y       0.135500
     75 H34          8.4960     1.8230    -0.6270 ha         1 B8Y       0.129500
     76 H36          7.8350     0.4090     0.3170 hn         1 B8Y       0.317500
     77 C37         -3.1840    -2.7610    -0.4470 c3         1 B8Y       0.173800
     78 C22        -10.2790     1.8610    -3.3680 c3         1 B8Y       0.104300
     79 O56          1.1290    -2.2110     1.3380 o          1 B8Y      -0.538000
@<TRIPOS>BOND
     1     1     7 1   
     2     1     8 1   
     3     1    44 1   
     4     1    45 1   
     5     2     3 1   
     6     2    36 1   
     7     2    46 1   
     8     2    47 1   
     9     3     7 1   
    10     3    48 1   
    11     3    49 1   
    12     4     6 ar  
    13     4    18 ar  
    14     4    42 1   
    15     5    34 1   
    16     5    35 1   
    17     5    40 2   
    18     6     9 ar  
    19     6    50 1   
    20     7    35 1   
    21     7    51 1   
    22     8    36 1   
    23     8    55 1   
    24     8    56 1   
    25     9    11 ar  
    26     9    35 1   
    27    10    12 1   
    28    10    59 1   
    29    10    60 1   
    30    10    77 1   
    31    11    17 ar  
    32    11    34 1   
    33    12    37 1   
    34    12    61 1   
    35    12    62 1   
    36    13    14 1   
    37    13    37 1   
    38    13    79 2   
    39    14    19 1   
    40    14    38 2   
    41    15    16 2   
    42    15    38 1   
    43    15    63 1   
    44    16    37 1   
    45    16    64 1   
    46    17    18 ar  
    47    17    65 1   
    48    18    66 1   
    49    19    20 ar  
    50    19    24 ar  
    51    20    21 ar  
    52    20    67 1   
    53    21    22 ar  
    54    21    68 1   
    55    22    23 ar  
    56    22    43 1   
    57    23    24 ar  
    58    23    25 1   
    59    24    69 1   
    60    25    39 1   
    61    25    70 1   
    62    25    71 1   
    63    26    27 1   
    64    26    39 1   
    65    26    41 2   
    66    27    28 ar  
    67    27    32 ar  
    68    28    29 ar  
    69    28    72 1   
    70    29    30 ar  
    71    29    73 1   
    72    30    31 ar  
    73    30    33 1   
    74    31    32 ar  
    75    31    74 1   
    76    32    75 1   
    77    34    78 1   
    78    36    77 1   
    79    39    76 1   
    80    52    78 1   
    81    53    78 1   
    82    54    78 1   
    83    57    77 1   
    84    58    77 1   
@<TRIPOS>SUBSTRUCTURE
     1 B8Y         1 TEMP              0 ****  ****    0 ROOT
