@<TRIPOS>MOLECULE
B8Z
   46    49     1     0     0
SMALL
No Charge or Current Charge


@<TRIPOS>ATOM
      1 C11         -0.4180   -42.1390   -46.9880 cc         1 B8Z       0.214500
      2 C12          0.4090   -42.1170   -48.0890 cd         1 B8Z      -0.215000
      3 C14          1.5430   -42.2440   -45.9510 cd         1 B8Z       0.408700
      4 C15          2.5170   -42.3120   -44.7970 c3         1 B8Z       0.131300
      5 C17          4.2970   -43.8240   -43.9800 ca         1 B8Z       0.125100
      6 C18          5.0220   -45.0120   -44.1750 ca         1 B8Z      -0.140000
      7 C19          6.0340   -45.3860   -43.2710 ca         1 B8Z      -0.113500
      8 C20          6.3210   -44.5660   -42.1680 ca         1 B8Z       0.141000
      9 C22          5.6030   -43.3760   -41.9640 ca         1 B8Z      -0.113500
     10 C01         -9.8280   -42.0910   -41.6790 c3         1 B8Z       0.149900
     11 C03         -7.7930   -42.0880   -43.1420 ca         1 B8Z       0.075100
     12 C04         -6.3830   -42.1300   -43.1210 ca         1 B8Z      -0.052000
     13 C05         -5.6530   -42.1000   -44.3170 ca         1 B8Z       0.096400
     14 C07         -3.9110   -42.0940   -45.6630 cc         1 B8Z       0.438800
     15 C09         -1.9130   -42.0890   -47.1440 c          1 B8Z       0.542600
     16 C23          4.5900   -43.0010   -42.8680 ca         1 B8Z      -0.140000
     17 C26         -6.3160   -42.0310   -45.5190 ca         1 B8Z      -0.191000
     18 C27         -7.7150   -41.9870   -45.5970 ca         1 B8Z      -0.158000
     19 C28         -8.4790   -42.0160   -44.4010 ca         1 B8Z       0.125100
     20 C30        -10.5970   -41.9010   -45.6900 c3         1 B8Z       0.143900
     21 F21          7.2920   -44.9230   -41.3000 f          1 B8Z      -0.176000
     22 N06         -4.2650   -42.1380   -44.3740 nd         1 B8Z      -0.590100
     23 N08         -2.5640   -42.1210   -45.9330 ns         1 B8Z      -0.384400
     24 N24          0.2250   -42.2090   -45.7630 nc         1 B8Z      -0.639000
     25 O10         -2.4960   -42.0270   -48.2210 o          1 B8Z      -0.568100
     26 O16          3.3180   -43.5100   -44.9000 os         1 B8Z      -0.359100
     27 O29         -9.8630   -41.9740   -44.4550 os         1 B8Z      -0.325100
     28 S13          2.0990   -42.1850   -47.6190 ss         1 B8Z       0.087600
     29 S25         -5.2120   -42.0050   -46.8850 ss         1 B8Z       0.115800
     30 H1           0.1280   -42.0650   -49.1330 h4         1 B8Z       0.184000
     31 H2           3.1520   -41.4170   -44.8280 h1         1 B8Z       0.067200
     32 H3           1.9540   -42.3020   -43.8560 h1         1 B8Z       0.067200
     33 H4           4.7980   -45.6460   -45.0300 ha         1 B8Z       0.128000
     34 H5           6.5940   -46.3050   -43.4230 ha         1 B8Z       0.135000
     35 H6           5.8320   -42.7480   -41.1070 ha         1 B8Z       0.135000
     36 H7         -10.0480   -42.1300   -40.6050 h1         1 B8Z       0.035367
     37 H8         -10.2650   -41.1660   -42.0760 h1         1 B8Z       0.035367
     38 H9         -10.3160   -42.9530   -42.1510 h1         1 B8Z       0.035367
     39 H10         -5.8580   -42.1850   -42.1720 ha         1 B8Z       0.142000
     40 H11          4.0480   -42.0770   -42.6890 ha         1 B8Z       0.128000
     41 H12         -8.1830   -41.9330   -46.5750 ha         1 B8Z       0.128000
     42 H13        -11.6750   -41.8780   -45.4880 h1         1 B8Z       0.042033
     43 H14        -10.3370   -40.9910   -46.2460 h1         1 B8Z       0.042033
     44 H15        -10.3890   -42.7740   -46.3210 h1         1 B8Z       0.042033
     45 H16         -1.9430   -42.1730   -45.1360 hn         1 B8Z       0.365500
     46 O02         -8.4060   -42.1230   -41.8940 os         1 B8Z      -0.345100
@<TRIPOS>BOND
     1     1     2 2   
     2     1    15 1   
     3     1    24 1   
     4     2    28 1   
     5     2    30 1   
     6     3     4 1   
     7     3    24 2   
     8     3    28 1   
     9     4    26 1   
    10     4    31 1   
    11     4    32 1   
    12     5     6 ar  
    13     5    16 ar  
    14     5    26 1   
    15     6     7 ar  
    16     6    33 1   
    17     7     8 ar  
    18     7    34 1   
    19     8     9 ar  
    20     8    21 1   
    21     9    16 ar  
    22     9    35 1   
    23    10    36 1   
    24    10    37 1   
    25    10    38 1   
    26    10    46 1   
    27    11    12 ar  
    28    11    19 ar  
    29    11    46 1   
    30    12    13 ar  
    31    12    39 1   
    32    13    17 ar  
    33    13    22 1   
    34    14    22 2   
    35    14    23 1   
    36    14    29 1   
    37    15    23 1   
    38    15    25 2   
    39    16    40 1   
    40    17    18 ar  
    41    17    29 1   
    42    18    19 ar  
    43    18    41 1   
    44    19    27 1   
    45    20    27 1   
    46    20    42 1   
    47    20    43 1   
    48    20    44 1   
    49    23    45 1   
@<TRIPOS>SUBSTRUCTURE
     1 B8Z         1 TEMP              0 ****  ****    0 ROOT
