@<TRIPOS>MOLECULE
B8Z
   46    49     1     0     0
SMALL
abcg2


@<TRIPOS>ATOM
      1 C11         -0.6070   -42.5350   -46.5410 cc         1 B8Z       0.214500
      2 C12          0.2140   -42.5380   -47.6260 cd         1 B8Z      -0.215000
      3 C14          1.2830   -42.8370   -45.4840 cd         1 B8Z       0.408700
      4 C15          2.2470   -43.0220   -44.3600 c3         1 B8Z       0.131300
      5 C17          4.5580   -43.5340   -44.1470 ca         1 B8Z       0.125100
      6 C18          5.7560   -43.8290   -44.7940 ca         1 B8Z      -0.140000
      7 C19          6.8940   -44.1160   -44.0610 ca         1 B8Z      -0.113500
      8 C20          6.8240   -44.1050   -42.6790 ca         1 B8Z       0.141000
      9 C22          5.6520   -43.8080   -42.0200 ca         1 B8Z      -0.113500
     10 C01         -9.5060   -41.1130   -41.8140 c3         1 B8Z       0.149900
     11 C03         -8.2260   -42.2910   -43.3740 ca         1 B8Z       0.075100
     12 C04         -6.8760   -42.3910   -43.1240 ca         1 B8Z      -0.052000
     13 C05         -5.9740   -42.3420   -44.1880 ca         1 B8Z       0.096400
     14 C07         -4.0640   -42.3630   -45.2510 cc         1 B8Z       0.438800
     15 C09         -2.0700   -42.3820   -46.6180 c          1 B8Z       0.542600
     16 C23          4.5080   -43.5180   -42.7570 ca         1 B8Z      -0.140000
     17 C26         -6.4650   -42.1790   -45.4850 ca         1 B8Z      -0.191000
     18 C27         -7.8250   -42.0710   -45.7580 ca         1 B8Z      -0.158000
     19 C28         -8.7130   -42.1270   -44.6950 ca         1 B8Z       0.125100
     20 C30        -10.5990   -41.8970   -46.1070 c3         1 B8Z       0.143900
     21 F21          7.9270   -44.3920   -41.9650 f          1 B8Z      -0.176000
     22 N06         -4.6070   -42.4430   -44.0880 nd         1 B8Z      -0.590100
     23 N08         -2.7070   -42.4470   -45.4180 ns         1 B8Z      -0.384400
     24 N24          0.0100   -42.7050   -45.3360 nc         1 B8Z      -0.639000
     25 O10         -2.6640   -42.2170   -47.6670 o          1 B8Z      -0.568100
     26 O16          3.4960   -43.2780   -44.9470 os         1 B8Z      -0.359100
     27 O29        -10.0480   -42.0420   -44.8140 os         1 B8Z      -0.325100
     28 S13          1.8250   -42.7640   -47.1230 ss         1 B8Z       0.087600
     29 S25         -5.1440   -42.1520   -46.6120 ss         1 B8Z       0.115800
     30 H1          -0.0500   -42.4280   -48.6660 h4         1 B8Z       0.184000
     31 H2           2.2650   -42.1150   -43.7440 h1         1 B8Z       0.067200
     32 H3           1.9110   -43.8520   -43.7280 h1         1 B8Z       0.067200
     33 H4           5.7940   -43.8370   -45.8760 ha         1 B8Z       0.128000
     34 H5           7.8240   -44.3480   -44.5630 ha         1 B8Z       0.135000
     35 H6           5.6150   -43.7980   -40.9380 ha         1 B8Z       0.135000
     36 H7         -10.2080   -41.3120   -41.0060 h1         1 B8Z       0.035367
     37 H8          -8.6470   -40.5710   -41.4080 h1         1 B8Z       0.035367
     38 H9          -9.9980   -40.4820   -42.5580 h1         1 B8Z       0.035367
     39 H10         -6.5220   -42.5180   -42.1080 ha         1 B8Z       0.142000
     40 H11          3.5980   -43.2860   -42.2220 ha         1 B8Z       0.128000
     41 H12         -8.1660   -41.9490   -46.7770 ha         1 B8Z       0.128000
     42 H13        -11.6780   -41.8530   -45.9790 h1         1 B8Z       0.042033
     43 H14        -10.2640   -40.9770   -46.5930 h1         1 B8Z       0.042033
     44 H15        -10.3540   -42.7450   -46.7520 h1         1 B8Z       0.042033
     45 H16         -2.1530   -42.5820   -44.5800 hn         1 B8Z       0.365500
     46 O02         -9.1170   -42.3700   -42.3500 os         1 B8Z      -0.345100
@<TRIPOS>BOND
     1     1     2 2   
     2     1    15 1   
     3     1    24 1   
     4     2    28 1   
     5     2    30 1   
     6     3     4 1   
     7     3    24 2   
     8     3    28 1   
     9     4    26 1   
    10     4    31 1   
    11     4    32 1   
    12     5     6 ar  
    13     5    16 ar  
    14     5    26 1   
    15     6     7 ar  
    16     6    33 1   
    17     7     8 ar  
    18     7    34 1   
    19     8     9 ar  
    20     8    21 1   
    21     9    16 ar  
    22     9    35 1   
    23    10    36 1   
    24    10    37 1   
    25    10    38 1   
    26    10    46 1   
    27    11    12 ar  
    28    11    19 ar  
    29    11    46 1   
    30    12    13 ar  
    31    12    39 1   
    32    13    17 ar  
    33    13    22 1   
    34    14    22 2   
    35    14    23 1   
    36    14    29 1   
    37    15    23 1   
    38    15    25 2   
    39    16    40 1   
    40    17    18 ar  
    41    17    29 1   
    42    18    19 ar  
    43    18    41 1   
    44    19    27 1   
    45    20    27 1   
    46    20    42 1   
    47    20    43 1   
    48    20    44 1   
    49    23    45 1   
@<TRIPOS>SUBSTRUCTURE
     1 B8Z         1 TEMP              0 ****  ****    0 ROOT
