@<TRIPOS>MOLECULE
B90
   54    58     1     0     0
SMALL
abcg2


@<TRIPOS>ATOM
      1 N1           7.8070    -2.6060     0.8820 nc         1 B90      -0.510100
      2 C2           6.6560    -2.1270     0.4790 cd         1 B90       0.347800
      3 C3           6.7450    -0.7420     0.1730 ca         1 B90      -0.220900
      4 C4           8.0900    -0.4230     0.4460 ca         1 B90      -0.039200
      5 N5           8.6690    -1.5830     0.8670 na         1 B90      -0.066400
      6 C6           5.8270     0.2430    -0.2850 ca         1 B90       0.025200
      7 C7           6.3200     1.5300    -0.4790 ca         1 B90      -0.089300
      8 C8           7.6820     1.8070    -0.1920 ca         1 B90      -0.075000
      9 C9           8.5850     0.8740     0.2720 ca         1 B90      -0.120000
     10 C10          5.4770     2.6430    -1.0200 c3         1 B90      -0.049800
     11 C14          4.4790    -0.1840    -0.5350 ce         1 B90      -0.196200
     12 C15          3.3730     0.5120    -0.3430 c2         1 B90      -0.097100
     13 N16          2.1420     0.0440    -0.5820 na         1 B90      -0.176200
     14 C17          1.7310    -1.0770    -1.2470 cc         1 B90       0.420700
     15 N18          0.4420    -1.2410    -1.2600 nd         1 B90      -0.540100
     16 C19         -0.0190    -0.1350    -0.5670 ca         1 B90      -0.086600
     17 C20          1.0140     0.6730    -0.1530 ca         1 B90       0.121500
     18 C21         -1.2840     0.2930    -0.2160 ca         1 B90       0.446900
     19 N22         -1.4190     1.4380     0.4610 nb         1 B90      -0.269000
     20 C23         -0.3390     2.1320     0.7920 ca         1 B90       0.182900
     21 N24          0.9160     1.8130     0.5400 nb         1 B90      -0.201000
     22 N25         -2.3630    -0.5040    -0.5770 nu         1 B90      -0.928900
     23 C26         -3.7290    -0.3640    -0.3400 ca         1 B90       0.344000
     24 C27         -4.6070    -1.4200    -0.7690 ca         1 B90      -0.169000
     25 C28         -5.9660    -1.3620    -0.5610 ca         1 B90      -0.010000
     26 C29         -6.5210    -0.2730     0.0840 ca         1 B90      -0.376500
     27 C30         -5.6810     0.7510     0.5020 ca         1 B90      -0.010000
     28 C31         -4.3110     0.7240     0.3070 ca         1 B90      -0.169000
     29 P36         -8.3150    -0.3010     0.3250 py         1 B90       1.245500
     30 C37         -8.5630    -0.1070     2.1310 c3         1 B90      -0.483600
     31 C41         -8.9210     1.2800    -0.3690 c3         1 B90      -0.483600
     32 O45         -8.9420    -1.4840    -0.2480 o          1 B90      -0.569000
     33 H2           5.8000    -2.7810     0.4230 h4         1 B90       0.045800
     34 HN5          9.6200    -1.7340     1.1490 hn         1 B90       0.376000
     35 H8           8.0460     2.8180    -0.3610 ha         1 B90       0.113000
     36 H9           9.6240     1.1360     0.4750 ha         1 B90       0.125000
     37 H10          4.9190     3.1380    -0.1960 hc         1 B90       0.044033
     38 H10A         6.0780     3.4110    -1.5180 hc         1 B90       0.044033
     39 H10B         4.7510     2.3250    -1.7510 hc         1 B90       0.044033
     40 H14          4.3930    -1.1990    -0.8670 ha         1 B90       0.176000
     41 H15          3.3430     1.5000     0.0640 h4         1 B90       0.226000
     42 H17          2.4200    -1.7480    -1.7030 h5         1 B90       0.073800
     43 H23         -0.5220     3.0420     1.3430 h5         1 B90       0.056100
     44 HN25        -2.0890    -1.3380    -1.0700 hn         1 B90       0.520000
     45 H27         -4.1910    -2.2880    -1.2690 ha         1 B90       0.132500
     46 H28         -6.6140    -2.1630    -0.8940 ha         1 B90       0.122500
     47 H30         -6.0940     1.6180     1.0040 ha         1 B90       0.122500
     48 H31         -3.6890     1.5280     0.6490 ha         1 B90       0.132500
     49 H37         -8.0520     0.7620     2.5450 hc         1 B90       0.074700
     50 H37A        -9.6260    -0.0080     2.3570 hc         1 B90       0.074700
     51 H37B        -8.1810    -0.9980     2.6270 hc         1 B90       0.074700
     52 H41         -8.7540     1.2930    -1.4430 hc         1 B90       0.074700
     53 H41A        -9.9910     1.3550    -0.1790 hc         1 B90       0.074700
     54 H41B        -8.4320     2.1520     0.0630 hc         1 B90       0.074700
@<TRIPOS>BOND
     1     1     2 2   
     2     1     5 1   
     3     2     3 1   
     4     2    33 1   
     5     3     4 ar  
     6     3     6 ar  
     7     4     5 1   
     8     4     9 ar  
     9     5    34 1   
    10     6     7 ar  
    11     6    11 1   
    12     7     8 ar  
    13     7    10 1   
    14     8     9 ar  
    15     8    35 1   
    16     9    36 1   
    17    10    37 1   
    18    10    38 1   
    19    10    39 1   
    20    11    12 2   
    21    11    40 1   
    22    12    13 1   
    23    12    41 1   
    24    13    14 1   
    25    13    17 1   
    26    14    15 2   
    27    14    42 1   
    28    15    16 1   
    29    16    17 ar  
    30    16    18 ar  
    31    17    21 ar  
    32    18    19 ar  
    33    18    22 1   
    34    19    20 ar  
    35    20    21 ar  
    36    20    43 1   
    37    22    23 1   
    38    22    44 1   
    39    23    24 ar  
    40    23    28 ar  
    41    24    25 ar  
    42    24    45 1   
    43    25    26 ar  
    44    25    46 1   
    45    26    27 ar  
    46    26    29 1   
    47    27    28 ar  
    48    27    47 1   
    49    28    48 1   
    50    29    30 1   
    51    29    31 1   
    52    29    32 2   
    53    30    49 1   
    54    30    50 1   
    55    30    51 1   
    56    31    52 1   
    57    31    53 1   
    58    31    54 1   
@<TRIPOS>SUBSTRUCTURE
     1 B90         1 TEMP              0 ****  ****    0 ROOT
