@<TRIPOS>MOLECULE
B90
   54    58     1     0     0
SMALL
No Charge or Current Charge


@<TRIPOS>ATOM
      1 N1           8.0870    -2.6250     0.4430 nc         1 B90      -0.510100
      2 C2           6.8920    -2.1240     0.0850 cd         1 B90       0.347800
      3 C3           6.9610    -0.6920    -0.0880 ca         1 B90      -0.220900
      4 C4           8.2460    -0.3560     0.1860 ca         1 B90      -0.039200
      5 N5           8.9410    -1.5070     0.5050 na         1 B90      -0.066400
      6 C6           5.9850     0.2530    -0.4340 ca         1 B90       0.025200
      7 C7           6.3980     1.6130    -0.5140 ca         1 B90      -0.089300
      8 C8           7.7460     1.9580    -0.2240 ca         1 B90      -0.075000
      9 C9           8.6870     0.9690     0.1340 ca         1 B90      -0.120000
     10 C10          5.4360     2.7210    -0.9340 c3         1 B90      -0.049800
     11 C14          4.5950    -0.2000    -0.7090 ce         1 B90      -0.196200
     12 C15          3.4920     0.3340    -0.1370 c2         1 B90      -0.097100
     13 N16          2.1500    -0.0810    -0.3620 na         1 B90      -0.176200
     14 C17          1.6970    -1.1080    -1.2040 cc         1 B90       0.420700
     15 N18          0.3530    -1.2170    -1.1690 nd         1 B90      -0.540100
     16 C19         -0.0270    -0.2140    -0.2700 ca         1 B90      -0.086600
     17 C20          1.0490     0.4790     0.2290 ca         1 B90       0.121500
     18 C21         -1.3210     0.1450     0.1630 ca         1 B90       0.446900
     19 N22         -1.4880     1.1350     1.0620 nb         1 B90      -0.269000
     20 C23         -0.3640     1.7580     1.4910 ca         1 B90       0.182900
     21 N24          0.9080     1.4820     1.1190 nb         1 B90      -0.201000
     22 N25         -2.4300    -0.5570    -0.3030 nu         1 B90      -0.928900
     23 C26         -3.8140    -0.4440    -0.1520 ca         1 B90       0.344000
     24 C27         -4.6020    -1.5860    -0.3620 ca         1 B90      -0.169000
     25 C28         -5.9990    -1.5290    -0.2350 ca         1 B90      -0.010000
     26 C29         -6.6270    -0.3120     0.0980 ca         1 B90      -0.376500
     27 C30         -5.8420     0.8420     0.2940 ca         1 B90      -0.010000
     28 C31         -4.4450     0.7730     0.1650 ca         1 B90      -0.169000
     29 P36         -8.4500    -0.2420     0.2610 py         1 B90       1.245500
     30 C37         -8.7700     0.4770     1.9120 c3         1 B90      -0.483600
     31 C41         -8.9940     1.1000    -0.8550 c3         1 B90      -0.483600
     32 O45         -9.1540    -1.5350     0.0280 o          1 B90      -0.569000
     33 H2           6.0500    -2.7960    -0.0300 h4         1 B90       0.045800
     34 HN5          9.9270    -1.5800     0.7560 hn         1 B90       0.376000
     35 H8           8.0650     2.9960    -0.2810 ha         1 B90       0.113000
     36 H9           9.7190     1.2310     0.3560 ha         1 B90       0.125000
     37 H10          4.8410     3.0710    -0.0820 hc         1 B90       0.044033
     38 H10A         5.9740     3.5880    -1.3350 hc         1 B90       0.044033
     39 H10B         4.7470     2.3830    -1.7170 hc         1 B90       0.044033
     40 H14          4.5230    -1.0440    -1.3960 ha         1 B90       0.176000
     41 H15          3.5620     1.1560     0.5770 h4         1 B90       0.226000
     42 H17          2.3690    -1.7170    -1.7950 h5         1 B90       0.073800
     43 H23         -0.4970     2.5610     2.2140 h5         1 B90       0.056100
     44 HN25        -2.1360    -1.3760    -0.8340 hn         1 B90       0.520000
     45 H27         -4.1300    -2.5310    -0.6170 ha         1 B90       0.132500
     46 H28         -6.5870    -2.4320    -0.3960 ha         1 B90       0.122500
     47 H30         -6.3060     1.7960     0.5400 ha         1 B90       0.122500
     48 H31         -3.8650     1.6790     0.2960 ha         1 B90       0.132500
     49 H37         -8.3330     1.4790     1.9800 hc         1 B90       0.074700
     50 H37A        -9.8510     0.5400     2.0750 hc         1 B90       0.074700
     51 H37B        -8.3220    -0.1670     2.6760 hc         1 B90       0.074700
     52 H41         -8.6890     0.8590    -1.8790 hc         1 B90       0.074700
     53 H41A       -10.0850     1.1860    -0.8110 hc         1 B90       0.074700
     54 H41B        -8.5410     2.0500    -0.5550 hc         1 B90       0.074700
@<TRIPOS>BOND
     1     1     2 2   
     2     1     5 1   
     3     2     3 1   
     4     2    33 1   
     5     3     4 ar  
     6     3     6 ar  
     7     4     5 1   
     8     4     9 ar  
     9     5    34 1   
    10     6     7 ar  
    11     6    11 1   
    12     7     8 ar  
    13     7    10 1   
    14     8     9 ar  
    15     8    35 1   
    16     9    36 1   
    17    10    37 1   
    18    10    38 1   
    19    10    39 1   
    20    11    12 2   
    21    11    40 1   
    22    12    13 1   
    23    12    41 1   
    24    13    14 1   
    25    13    17 1   
    26    14    15 2   
    27    14    42 1   
    28    15    16 1   
    29    16    17 ar  
    30    16    18 ar  
    31    17    21 ar  
    32    18    19 ar  
    33    18    22 1   
    34    19    20 ar  
    35    20    21 ar  
    36    20    43 1   
    37    22    23 1   
    38    22    44 1   
    39    23    24 ar  
    40    23    28 ar  
    41    24    25 ar  
    42    24    45 1   
    43    25    26 ar  
    44    25    46 1   
    45    26    27 ar  
    46    26    29 1   
    47    27    28 ar  
    48    27    47 1   
    49    28    48 1   
    50    29    30 1   
    51    29    31 1   
    52    29    32 2   
    53    30    49 1   
    54    30    50 1   
    55    30    51 1   
    56    31    52 1   
    57    31    53 1   
    58    31    54 1   
@<TRIPOS>SUBSTRUCTURE
     1 B90         1 TEMP              0 ****  ****    0 ROOT
