@<TRIPOS>MOLECULE
B91
   66    71     1     0     0
SMALL
No Charge or Current Charge


@<TRIPOS>ATOM
      1 C1          -5.6680    -0.1070     0.6080 ca         1 B91       0.131500
      2 F1           8.1260    -1.3180     2.5970 f          1 B91      -0.110333
      3 N1          -5.0080    -1.1770     0.0590 na         1 B91      -0.203200
      4 O1           1.3150     0.2340     0.2030 o          1 B91      -0.569100
      5 C2         -11.4210     1.8240    -0.3310 cx         1 B91      -0.129900
      6 F2           9.0530    -0.5710     0.7780 f          1 B91      -0.110333
      7 N2           3.0590    -1.2580     0.3800 ns         1 B91      -0.145000
      8 C3          -3.6310    -1.5040     0.2010 c2         1 B91      -0.073100
      9 F3           7.9720    -2.4500     0.7470 f          1 B91      -0.110333
     10 N3           5.5050     3.0280     0.3300 na         1 B91      -0.085300
     11 C4          -3.0100    -2.5720    -0.3500 ce         1 B91      -0.217200
     12 N4           4.2630     4.8030     0.7510 nc         1 B91      -0.668000
     13 C5          -1.5600    -2.8890    -0.1780 ca         1 B91      -0.044800
     14 N5          -7.2170    -1.3020    -0.6060 nc         1 B91      -0.542100
     15 C6          -1.1050    -4.2280    -0.1480 ca         1 B91      -0.036300
     16 N6          -5.2300     0.8940     1.3990 nb         1 B91      -0.219000
     17 C7           0.2690    -4.4870     0.0060 ca         1 B91      -0.117000
     18 N7          -7.4680     1.8100     1.4290 nb         1 B91      -0.283000
     19 C8           1.1920    -3.4370     0.1320 ca         1 B91      -0.082000
     20 N8          -9.2190     0.7590     0.2560 nu         1 B91      -0.886100
     21 C9           0.7560    -2.0920     0.1020 ca         1 B91      -0.161600
     22 C10         -0.6260    -1.8390    -0.0550 ca         1 B91      -0.048000
     23 C11         -2.0720    -5.4030    -0.2640 c3         1 B91      -0.054800
     24 C12          1.7190    -0.9230     0.2280 c          1 B91       0.626700
     25 C13          4.2380    -0.4710     0.5040 ca         1 B91       0.003000
     26 C14          4.2630     0.9300     0.3400 ca         1 B91      -0.129000
     27 C15          5.4700     1.6430     0.4800 ca         1 B91       0.040800
     28 C16          6.6580     0.9550     0.7770 ca         1 B91      -0.113000
     29 C17          6.6580    -0.4480     0.9290 ca         1 B91      -0.146300
     30 C18          5.4380    -1.1460     0.7960 ca         1 B91      -0.134000
     31 C19          7.9560    -1.1980     1.2610 c3         1 B91       0.358300
     32 C22          5.1220     3.5070    -0.9050 cd         1 B91      -0.214000
     33 C23          4.8620     3.7570     1.3140 cd         1 B91       0.408400
     34 C24        -10.2560     1.6870     0.6160 cx         1 B91       0.170500
     35 C25          4.4280     4.6490    -0.6020 cc         1 B91       0.253300
     36 C26         -5.9970    -1.8710    -0.6700 cd         1 B91       0.407700
     37 C27          3.8130     5.6240    -1.5620 c3         1 B91      -0.109400
     38 C28        -10.3980     2.9280    -0.2290 cx         1 B91      -0.129900
     39 C29         -6.9780    -0.1950     0.2040 ca         1 B91      -0.099600
     40 C30         -7.8810     0.8000     0.6370 ca         1 B91       0.449900
     41 C33         -6.1590     1.8050     1.7700 ca         1 B91       0.184900
     42 H2         -11.4260     1.2210    -1.2350 hc         1 B91       0.079950
     43 H2A        -12.4020     2.0000     0.1040 hc         1 B91       0.079950
     44 HN2          3.2340    -2.2530     0.4040 hn         1 B91       0.160000
     45 H3          -3.1010    -0.7880     0.8320 h4         1 B91       0.227000
     46 H4          -3.5700    -3.2810    -0.9610 ha         1 B91       0.182000
     47 H7           0.6290    -5.5130     0.0320 ha         1 B91       0.119000
     48 H8           2.2420    -3.6930     0.2490 ha         1 B91       0.114000
     49 HN8         -9.4270    -0.0520    -0.3300 hn         1 B91       0.518000
     50 H10         -0.9780    -0.8110    -0.0980 ha         1 B91       0.139000
     51 H11         -2.4860    -5.4730    -1.2770 hc         1 B91       0.049033
     52 H11A        -1.5810    -6.3580    -0.0440 hc         1 B91       0.049033
     53 H11B        -2.9080    -5.3000     0.4380 hc         1 B91       0.049033
     54 H14          3.3620     1.4840     0.0990 ha         1 B91       0.168000
     55 H16          7.5830     1.5180     0.8870 ha         1 B91       0.144000
     56 H18          5.4200    -2.2260     0.9250 ha         1 B91       0.132000
     57 H22          5.3640     3.0380    -1.8510 h4         1 B91       0.165000
     58 H23          4.8730     3.4790     2.3620 h5         1 B91       0.058100
     59 H24        -10.4560     1.7740     1.6870 h1         1 B91       0.090700
     60 H26         -5.7600    -2.7750    -1.2180 h5         1 B91       0.069800
     61 H27          4.1330     6.6490    -1.3370 hc         1 B91       0.045033
     62 H27A         4.1070     5.3980    -2.5930 hc         1 B91       0.045033
     63 H27B         2.7190     5.5880    -1.5060 hc         1 B91       0.045033
     64 H28         -9.7090     3.0620    -1.0590 hc         1 B91       0.079950
     65 H28A       -10.6880     3.8460     0.2760 hc         1 B91       0.079950
     66 H33         -5.8180     2.6180     2.4090 h5         1 B91       0.050100
@<TRIPOS>BOND
     1     1     3 1   
     2     1    16 ar  
     3     1    39 ar  
     4     2    31 1   
     5     3     8 1   
     6     3    36 1   
     7     4    24 2   
     8     5    34 1   
     9     5    38 1   
    10     5    42 1   
    11     5    43 1   
    12     6    31 1   
    13     7    24 1   
    14     7    25 1   
    15     7    44 1   
    16     8    11 2   
    17     8    45 1   
    18     9    31 1   
    19    10    27 1   
    20    10    32 1   
    21    10    33 1   
    22    11    13 1   
    23    11    46 1   
    24    12    33 2   
    25    12    35 1   
    26    13    15 ar  
    27    13    22 ar  
    28    14    36 2   
    29    14    39 1   
    30    15    17 ar  
    31    15    23 1   
    32    16    41 ar  
    33    17    19 ar  
    34    17    47 1   
    35    18    40 ar  
    36    18    41 ar  
    37    19    21 ar  
    38    19    48 1   
    39    20    34 1   
    40    20    40 1   
    41    20    49 1   
    42    21    22 ar  
    43    21    24 1   
    44    22    50 1   
    45    23    51 1   
    46    23    52 1   
    47    23    53 1   
    48    25    26 ar  
    49    25    30 ar  
    50    26    27 ar  
    51    26    54 1   
    52    27    28 ar  
    53    28    29 ar  
    54    28    55 1   
    55    29    30 ar  
    56    29    31 1   
    57    30    56 1   
    58    32    35 2   
    59    32    57 1   
    60    33    58 1   
    61    34    38 1   
    62    34    59 1   
    63    35    37 1   
    64    36    60 1   
    65    37    61 1   
    66    37    62 1   
    67    37    63 1   
    68    38    64 1   
    69    38    65 1   
    70    39    40 ar  
    71    41    66 1   
@<TRIPOS>SUBSTRUCTURE
     1 B91         1 TEMP              0 ****  ****    0 ROOT
