@<TRIPOS>MOLECULE
B91
   66    71     1     0     0
SMALL
abcg2


@<TRIPOS>ATOM
      1 C1          -5.5700    -0.3380     0.4790 ca         1 B91       0.131500
      2 F1           7.1910    -0.2400     3.7250 f          1 B91      -0.110333
      3 N1          -4.9630    -1.3880    -0.1630 na         1 B91      -0.203200
      4 O1           1.3060     0.0530    -0.6560 o          1 B91      -0.569100
      5 C2         -11.0970     2.0160     0.1700 cx         1 B91      -0.129900
      6 F2           8.3450    -0.4430     1.9240 f          1 B91      -0.110333
      7 N2           2.7530    -1.2710     0.4950 ns         1 B91      -0.145000
      8 C3          -3.6030    -1.6850    -0.0870 c2         1 B91      -0.073100
      9 F3           7.1120    -2.0720     2.6010 f          1 B91      -0.110333
     10 N3           5.0710     2.9910     0.1180 na         1 B91      -0.085300
     11 C4          -3.0220    -2.7470    -0.6440 ce         1 B91      -0.217200
     12 N4           5.5090     5.1490     0.1060 nc         1 B91      -0.668000
     13 C5          -1.5830    -3.0130    -0.5620 ca         1 B91      -0.044800
     14 N5          -7.1300    -1.4930    -0.6910 nc         1 B91      -0.542100
     15 C6          -1.1110    -4.3370    -0.6180 ca         1 B91      -0.036300
     16 N6          -5.0070     0.5760     1.2620 nb         1 B91      -0.219000
     17 C7           0.2590    -4.5620    -0.5250 ca         1 B91      -0.117000
     18 N7          -7.2050     1.4850     1.4780 nb         1 B91      -0.283000
     19 C8           1.1580    -3.5210    -0.3660 ca         1 B91      -0.082000
     20 N8          -9.0670     0.5920     0.4290 nu         1 B91      -0.886100
     21 C9           0.6940    -2.2090    -0.3130 ca         1 B91      -0.161600
     22 C10         -0.6690    -1.9700    -0.4380 ca         1 B91      -0.048000
     23 C11         -2.0500    -5.4970    -0.7640 c3         1 B91      -0.054800
     24 C12          1.6010    -1.0320    -0.1890 c          1 B91       0.626700
     25 C13          3.8320    -0.4220     0.7210 ca         1 B91       0.003000
     26 C14          3.8870     0.9020     0.2960 ca         1 B91      -0.129000
     27 C15          5.0220     1.6570     0.5610 ca         1 B91       0.040800
     28 C16          6.1010     1.1280     1.2500 ca         1 B91      -0.113000
     29 C17          6.0200    -0.1860     1.6940 ca         1 B91      -0.146300
     30 C18          4.9070    -0.9600     1.4340 ca         1 B91      -0.134000
     31 C19          7.1670    -0.7430     2.4830 c3         1 B91       0.358300
     32 C22          4.5220     3.5010    -1.0370 cd         1 B91      -0.214000
     33 C23          5.6490     4.0350     0.7650 cd         1 B91       0.408400
     34 C24         -9.9600     1.5360     1.0120 cx         1 B91       0.170500
     35 C25          4.8080     4.8330    -1.0310 cc         1 B91       0.253300
     36 C26         -5.9640    -2.0380    -0.8480 cd         1 B91       0.407700
     37 C27          4.4610     5.8550    -2.0550 c3         1 B91      -0.109400
     38 C28         -9.9670     2.9410     0.5000 cx         1 B91      -0.129900
     39 C29         -6.9070    -0.4240     0.1390 ca         1 B91      -0.099600
     40 C30         -7.7540     0.5610     0.6840 ca         1 B91       0.449900
     41 C33         -5.8960     1.4440     1.7140 ca         1 B91       0.184900
     42 H2         -11.1640     1.6430    -0.8440 hc         1 B91       0.079950
     43 H2A        -12.0520     2.1650     0.6560 hc         1 B91       0.079950
     44 HN2          2.8400    -2.1810     0.9230 hn         1 B91       0.160000
     45 H3          -3.0520    -0.9580     0.4950 h4         1 B91       0.227000
     46 H4          -3.6240    -3.4740    -1.1770 ha         1 B91       0.182000
     47 H7           0.6320    -5.5770    -0.5780 ha         1 B91       0.119000
     48 H8           2.2160    -3.7480    -0.3240 ha         1 B91       0.114000
     49 HN8         -9.4560    -0.1770    -0.0940 hn         1 B91       0.518000
     50 H10         -1.0230    -0.9470    -0.4430 ha         1 B91       0.139000
     51 H11         -2.6060    -5.4510    -1.7030 hc         1 B91       0.049033
     52 H11A        -1.5080    -6.4410    -0.7510 hc         1 B91       0.049033
     53 H11B        -2.7850    -5.5220     0.0420 hc         1 B91       0.049033
     54 H14          3.0540     1.3520    -0.2180 ha         1 B91       0.168000
     55 H16          6.9880     1.7240     1.4170 ha         1 B91       0.144000
     56 H18          4.8540    -1.9870     1.7720 ha         1 B91       0.132000
     57 H22          4.0160     2.8820    -1.7590 h4         1 B91       0.165000
     58 H23          6.1320     3.9220     1.7240 h5         1 B91       0.058100
     59 H24        -10.1510     1.3980     2.0720 h1         1 B91       0.090700
     60 H26         -5.7650    -2.9110    -1.4500 h5         1 B91       0.069800
     61 H27          5.3560     6.3180    -2.4730 hc         1 B91       0.045033
     62 H27A         3.9000     5.4110    -2.8760 hc         1 B91       0.045033
     63 H27B         3.8530     6.6540    -1.6280 hc         1 B91       0.045033
     64 H28         -9.2680     3.1840    -0.2890 hc         1 B91       0.079950
     65 H28A       -10.1350     3.7350     1.2160 hc         1 B91       0.079950
     66 H33         -5.5150     2.2250     2.3630 h5         1 B91       0.050100
@<TRIPOS>BOND
     1     1     3 1   
     2     1    16 ar  
     3     1    39 ar  
     4     2    31 1   
     5     3     8 1   
     6     3    36 1   
     7     4    24 2   
     8     5    34 1   
     9     5    38 1   
    10     5    42 1   
    11     5    43 1   
    12     6    31 1   
    13     7    24 1   
    14     7    25 1   
    15     7    44 1   
    16     8    11 2   
    17     8    45 1   
    18     9    31 1   
    19    10    27 1   
    20    10    32 1   
    21    10    33 1   
    22    11    13 1   
    23    11    46 1   
    24    12    33 2   
    25    12    35 1   
    26    13    15 ar  
    27    13    22 ar  
    28    14    36 2   
    29    14    39 1   
    30    15    17 ar  
    31    15    23 1   
    32    16    41 ar  
    33    17    19 ar  
    34    17    47 1   
    35    18    40 ar  
    36    18    41 ar  
    37    19    21 ar  
    38    19    48 1   
    39    20    34 1   
    40    20    40 1   
    41    20    49 1   
    42    21    22 ar  
    43    21    24 1   
    44    22    50 1   
    45    23    51 1   
    46    23    52 1   
    47    23    53 1   
    48    25    26 ar  
    49    25    30 ar  
    50    26    27 ar  
    51    26    54 1   
    52    27    28 ar  
    53    28    29 ar  
    54    28    55 1   
    55    29    30 ar  
    56    29    31 1   
    57    30    56 1   
    58    32    35 2   
    59    32    57 1   
    60    33    58 1   
    61    34    38 1   
    62    34    59 1   
    63    35    37 1   
    64    36    60 1   
    65    37    61 1   
    66    37    62 1   
    67    37    63 1   
    68    38    64 1   
    69    38    65 1   
    70    39    40 ar  
    71    41    66 1   
@<TRIPOS>SUBSTRUCTURE
     1 B91         1 TEMP              0 ****  ****    0 ROOT
