@<TRIPOS>MOLECULE
B93
   77    81     1     0     0
SMALL
abcg2


@<TRIPOS>ATOM
      1 C1           3.2500    -4.1070     3.0120 c3         1 B93      -0.197100
      2 C2           3.3300    -2.9990     1.9980 c          1 B93       0.558100
      3 O3           3.8610    -1.9410     2.2400 o          1 B93      -0.558100
      4 C4           2.7240    -3.2990     0.6340 c3         1 B93       0.026700
      5 C5           3.4570    -4.4530    -0.0430 c3         1 B93      -0.229400
      6 C6           2.7480    -4.9540    -1.3230 c          1 B93       0.718000
      7 O7           3.4900    -5.3470    -2.2430 o          1 B93      -0.719000
      8 O8           1.5040    -4.9550    -1.3050 o          1 B93      -0.719000
      9 N9           2.7560    -2.1380    -0.2150 ns         1 B93      -0.440900
     10 C10          1.9800    -1.0700    -0.0070 c          1 B93       0.594100
     11 O11          1.0540    -1.0330     0.7840 o          1 B93      -0.612100
     12 C12          2.3520     0.1560    -0.8560 c6         1 B93       0.042900
     13 C13          3.5850     0.8010    -0.2890 c2         1 B93      -0.192200
     14 C14          3.5990     1.9840     0.3190 c2         1 B93      -0.121400
     15 C15          4.8540     2.5900     0.8680 c3         1 B93      -0.033200
     16 C16          5.2410     3.9380     0.2480 c6         1 B93      -0.059700
     17 C17          6.5150     4.4650     0.9090 c6         1 B93      -0.073400
     18 C18          6.9670     5.7930     0.3100 c6         1 B93      -0.072900
     19 C19          7.1540     5.6790    -1.2000 c6         1 B93      -0.074400
     20 C20          5.8820     5.1650    -1.8670 c6         1 B93      -0.072900
     21 C21          5.4310     3.8380    -1.2640 c6         1 B93      -0.073400
     22 C22          2.3400     2.7820     0.4940 c6         1 B93       0.161200
     23 N23          1.2010     1.9370     0.2450 n          1 B93      -0.268400
     24 N24          1.2750     1.1140    -0.8740 n          1 B93      -0.221400
     25 C25         -0.0040     0.7230    -1.1870 c          1 B93       0.590000
     26 O26         -0.3210    -0.1170    -1.9970 o          1 B93      -0.487000
     27 N27         -0.8300     1.4920    -0.4040 n          1 B93      -0.377400
     28 C28         -2.2690     1.3720    -0.3800 c3         1 B93       0.105000
     29 C29         -2.7160     0.2960     0.6100 c3         1 B93       0.076000
     30 N30         -4.1500     0.1550     0.6290 ns         1 B93      -0.507900
     31 C31         -4.8140    -0.6060    -0.2630 c          1 B93       0.604700
     32 O32         -4.2340    -1.2620    -1.1180 o          1 B93      -0.572100
     33 C33         -6.3020    -0.6280    -0.1430 ca         1 B93      -0.173600
     34 C34         -7.0250     0.4460     0.4130 ca         1 B93      -0.070000
     35 C35         -8.4030     0.4300     0.5030 ca         1 B93      -0.132000
     36 C36         -9.0500    -0.7040     0.0260 ca         1 B93      -0.070200
     37 N37        -10.3640    -1.0670    -0.0440 na         1 B93      -0.320600
     38 C38        -10.4070    -2.2960    -0.6170 cc         1 B93       0.405700
     39 N39         -9.2340    -2.7660    -0.9270 nd         1 B93      -0.556100
     40 C40         -8.3510    -1.7860    -0.5360 ca         1 B93       0.051400
     41 C41         -6.9650    -1.7440    -0.6350 ca         1 B93       0.018000
     42 C42         -0.0950     2.2610     0.4770 c          1 B93       0.611000
     43 O43         -0.5230     3.0650     1.2780 o          1 B93      -0.568000
     44 H1           2.4140    -4.7810     2.8270 hc         1 B93       0.054700
     45 H1A          4.1640    -4.7030     2.9670 hc         1 B93       0.054700
     46 H1B          3.1710    -3.6990     4.0180 hc         1 B93       0.054700
     47 H4           1.6860    -3.6070     0.7890 h1         1 B93       0.117700
     48 H5           4.4900    -4.1630    -0.2580 hc         1 B93       0.029700
     49 H5A          3.5140    -5.2970     0.6500 hc         1 B93       0.029700
     50 HN9          3.5140    -2.0630    -0.8750 hn         1 B93       0.319500
     51 H12          2.5480    -0.1520    -1.8860 h1         1 B93       0.111700
     52 H13          4.5050     0.2390    -0.3970 ha         1 B93       0.192000
     53 H15          4.7340     2.7250     1.9490 hc         1 B93       0.052200
     54 H15A         5.6810     1.8870     0.7310 hc         1 B93       0.052200
     55 H16          4.4410     4.6650     0.4440 hc         1 B93       0.043700
     56 H17          6.3590     4.5690     1.9860 hc         1 B93       0.041950
     57 H17A         7.3110     3.7210     0.7790 hc         1 B93       0.041950
     58 H18          6.2160     6.5610     0.5240 hc         1 B93       0.035700
     59 H18A         7.8930     6.1210     0.7870 hc         1 B93       0.035700
     60 H19          7.4400     6.6450    -1.6220 hc         1 B93       0.034700
     61 H19A         7.9780     4.9880    -1.4110 hc         1 B93       0.034700
     62 H20          5.0850     5.9050    -1.7380 hc         1 B93       0.035700
     63 H20A         6.0330     5.0560    -2.9430 hc         1 B93       0.035700
     64 H21          6.1810     3.0650    -1.4750 hc         1 B93       0.041950
     65 H21A         4.5060     3.5060    -1.7450 hc         1 B93       0.041950
     66 H22          2.2670     3.1520     1.5180 h1         1 B93       0.059700
     67 H22A         2.3390     3.6530    -0.1720 h1         1 B93       0.059700
     68 H28         -2.6920     2.3400    -0.1140 h1         1 B93       0.067200
     69 H28A        -2.6070     1.1270    -1.3860 h1         1 B93       0.067200
     70 H29         -2.2510    -0.6560     0.3530 h1         1 B93       0.078700
     71 H29A        -2.3910     0.5610     1.6160 h1         1 B93       0.078700
     72 HN30        -4.6530     0.6170     1.3670 hn         1 B93       0.309500
     73 H34         -6.5070     1.3310     0.7590 ha         1 B93       0.111000
     74 H35         -8.9450     1.2690     0.9190 ha         1 B93       0.115000
     75 H38        -11.3460    -2.8030    -0.7830 h5         1 B93       0.058800
     76 H41         -6.4190    -2.5670    -1.0760 ha         1 B93       0.160000
     77 HN37       -11.1600    -0.5290     0.2580 hn         1 B93       0.353000
@<TRIPOS>BOND
     1     1     2 1   
     2     1    44 1   
     3     1    45 1   
     4     1    46 1   
     5     2     3 2   
     6     2     4 1   
     7     4     5 1   
     8     4     9 1   
     9     4    47 1   
    10     5     6 1   
    11     5    48 1   
    12     5    49 1   
    13     6     7 1   
    14     6     8 1   
    15     9    10 1   
    16     9    50 1   
    17    10    11 2   
    18    10    12 1   
    19    12    13 1   
    20    12    24 1   
    21    12    51 1   
    22    13    14 2   
    23    13    52 1   
    24    14    15 1   
    25    14    22 1   
    26    15    16 1   
    27    15    53 1   
    28    15    54 1   
    29    16    17 1   
    30    16    21 1   
    31    16    55 1   
    32    17    18 1   
    33    17    56 1   
    34    17    57 1   
    35    18    19 1   
    36    18    58 1   
    37    18    59 1   
    38    19    20 1   
    39    19    60 1   
    40    19    61 1   
    41    20    21 1   
    42    20    62 1   
    43    20    63 1   
    44    21    64 1   
    45    21    65 1   
    46    22    23 1   
    47    22    66 1   
    48    22    67 1   
    49    23    24 1   
    50    23    42 1   
    51    24    25 1   
    52    25    26 2   
    53    25    27 1   
    54    27    28 1   
    55    27    42 1   
    56    28    29 1   
    57    28    68 1   
    58    28    69 1   
    59    29    30 1   
    60    29    70 1   
    61    29    71 1   
    62    30    31 1   
    63    30    72 1   
    64    31    32 2   
    65    31    33 1   
    66    33    34 ar  
    67    33    41 ar  
    68    34    35 ar  
    69    34    73 1   
    70    35    36 ar  
    71    35    74 1   
    72    36    37 1   
    73    36    40 ar  
    74    37    38 1   
    75    37    77 1   
    76    38    39 2   
    77    38    75 1   
    78    39    40 1   
    79    40    41 ar  
    80    41    76 1   
    81    42    43 2   
@<TRIPOS>SUBSTRUCTURE
     1 B93         1 TEMP              0 ****  ****    0 ROOT
