@<TRIPOS>MOLECULE
B93
   77    81     1     0     0
SMALL
No Charge or Current Charge


@<TRIPOS>ATOM
      1 C1           3.9210    -4.5540     3.3410 c3         1 B93      -0.197100
      2 C2           4.3210    -3.5090     2.2980 c          1 B93       0.558100
      3 O3           5.0590    -2.5740     2.5940 o          1 B93      -0.558100
      4 C4           3.7240    -3.6930     0.8710 c3         1 B93       0.026700
      5 C5           4.5530    -4.6790     0.0040 c3         1 B93      -0.229400
      6 C6           3.8860    -4.8970    -1.3610 c          1 B93       0.718000
      7 O7           4.2080    -4.1640    -2.2830 o          1 B93      -0.719000
      8 O8           3.0310    -5.7650    -1.4460 o          1 B93      -0.719000
      9 N9           3.5600    -2.3860     0.2030 ns         1 B93      -0.440900
     10 C10          2.5160    -1.5160     0.4390 c          1 B93       0.594100
     11 O11          1.6450    -1.7730     1.2640 o          1 B93      -0.612100
     12 C12          2.5480    -0.1970    -0.3810 c6         1 B93       0.042900
     13 C13          3.7420     0.6900     0.0020 c2         1 B93      -0.192200
     14 C14          3.6380     1.9160     0.5630 c2         1 B93      -0.121400
     15 C15          4.8520     2.7550     0.9350 c3         1 B93      -0.033200
     16 C16          5.0470     4.0430     0.0800 c6         1 B93      -0.059700
     17 C17          6.2890     4.8490     0.5570 c6         1 B93      -0.073400
     18 C18          6.4880     6.1360    -0.2820 c6         1 B93      -0.072900
     19 C19          6.5950     5.8100    -1.7910 c6         1 B93      -0.074400
     20 C20          5.3620     5.0110    -2.2770 c6         1 B93      -0.072900
     21 C21          5.1590     3.7240    -1.4390 c6         1 B93      -0.073400
     22 C22          2.2850     2.5680     0.8760 c6         1 B93       0.161200
     23 N23          1.1650     1.6410     0.6620 n          1 B93      -0.268400
     24 N24          1.2930     0.5820    -0.3040 n          1 B93      -0.221400
     25 C25          0.0020     0.1650    -0.6530 c          1 B93       0.590000
     26 O26         -0.2940    -0.7650    -1.3890 o          1 B93      -0.487000
     27 N27         -0.8680     0.9980     0.0220 n          1 B93      -0.377400
     28 C28         -2.3320     0.9720    -0.1510 c3         1 B93       0.105000
     29 C29         -3.0350     0.0550     0.8710 c3         1 B93       0.076000
     30 N30         -4.5010     0.0760     0.7470 ns         1 B93      -0.507900
     31 C31         -5.2120    -0.5010    -0.2850 c          1 B93       0.604700
     32 O32         -4.6460    -1.1050    -1.1850 o          1 B93      -0.572100
     33 C33         -6.7150    -0.3500    -0.2420 ca         1 B93      -0.173600
     34 C34         -7.3800     0.3560     0.8050 ca         1 B93      -0.070000
     35 C35         -8.7860     0.4770     0.8110 ca         1 B93      -0.132000
     36 C36         -9.4930    -0.1160    -0.2370 ca         1 B93      -0.070200
     37 N37        -10.8300    -0.1580    -0.4810 na         1 B93      -0.320600
     38 C38        -11.0070    -0.8770    -1.6620 cc         1 B93       0.405700
     39 N39         -9.8200    -1.2860    -2.1600 nd         1 B93      -0.556100
     40 C40         -8.8860    -0.7960    -1.2480 ca         1 B93       0.051400
     41 C41         -7.4890    -0.9320    -1.2810 ca         1 B93       0.018000
     42 C42         -0.1980     1.9270     0.7910 c          1 B93       0.611000
     43 O43         -0.6940     2.8440     1.4280 o          1 B93      -0.568000
     44 H1           2.8270    -4.5980     3.3990 hc         1 B93       0.054700
     45 H1A          4.1720    -5.5530     2.9670 hc         1 B93       0.054700
     46 H1B          4.3690    -4.3660     4.3240 hc         1 B93       0.054700
     47 H4           2.7250    -4.1300     1.0120 h1         1 B93       0.117700
     48 H5           5.5430    -4.2230    -0.1200 hc         1 B93       0.029700
     49 H5A          4.5720    -5.6220     0.5620 hc         1 B93       0.029700
     50 HN9          4.2410    -2.1130    -0.4960 hn         1 B93       0.319500
     51 H12          2.6740    -0.5140    -1.4260 h1         1 B93       0.111700
     52 H13          4.7270     0.2700    -0.2070 ha         1 B93       0.192000
     53 H15          4.7840     3.0270     1.9950 hc         1 B93       0.052200
     54 H15A         5.7570     2.1400     0.8550 hc         1 B93       0.052200
     55 H16          4.1570     4.6670     0.2400 hc         1 B93       0.043700
     56 H17          6.1780     5.1170     1.6160 hc         1 B93       0.041950
     57 H17A         7.1900     4.2230     0.4870 hc         1 B93       0.041950
     58 H18          5.6480     6.8230    -0.1100 hc         1 B93       0.035700
     59 H18A         7.3940     6.6600     0.0510 hc         1 B93       0.035700
     60 H19          6.6890     6.7400    -2.3680 hc         1 B93       0.034700
     61 H19A         7.5100     5.2310    -1.9810 hc         1 B93       0.034700
     62 H20          4.4640     5.6410    -2.2100 hc         1 B93       0.035700
     63 H20A         5.4810     4.7510    -3.3370 hc         1 B93       0.035700
     64 H21          5.9970     3.0350    -1.6150 hc         1 B93       0.041950
     65 H21A         4.2540     3.2090    -1.7880 hc         1 B93       0.041950
     66 H22          2.2680     2.9090     1.9210 h1         1 B93       0.059700
     67 H22A         2.1380     3.4480     0.2350 h1         1 B93       0.059700
     68 H28         -2.7240     1.9930    -0.0470 h1         1 B93       0.067200
     69 H28A        -2.5670     0.6340    -1.1680 h1         1 B93       0.067200
     70 H29         -2.6780    -0.9750     0.7400 h1         1 B93       0.078700
     71 H29A        -2.7660     0.3760     1.8860 h1         1 B93       0.078700
     72 HN30        -5.0380     0.5520     1.4600 hn         1 B93       0.309500
     73 H34         -6.8250     0.8160     1.6180 ha         1 B93       0.111000
     74 H35         -9.2990     1.0140     1.6060 ha         1 B93       0.115000
     75 H38        -11.9850    -1.0630    -2.0900 h5         1 B93       0.058800
     76 H41         -7.0220    -1.4790    -2.0970 ha         1 B93       0.160000
     77 HN37       -11.5680     0.2510     0.0770 hn         1 B93       0.353000
@<TRIPOS>BOND
     1     1     2 1   
     2     1    44 1   
     3     1    45 1   
     4     1    46 1   
     5     2     3 2   
     6     2     4 1   
     7     4     5 1   
     8     4     9 1   
     9     4    47 1   
    10     5     6 1   
    11     5    48 1   
    12     5    49 1   
    13     6     7 1   
    14     6     8 1   
    15     9    10 1   
    16     9    50 1   
    17    10    11 2   
    18    10    12 1   
    19    12    13 1   
    20    12    24 1   
    21    12    51 1   
    22    13    14 2   
    23    13    52 1   
    24    14    15 1   
    25    14    22 1   
    26    15    16 1   
    27    15    53 1   
    28    15    54 1   
    29    16    17 1   
    30    16    21 1   
    31    16    55 1   
    32    17    18 1   
    33    17    56 1   
    34    17    57 1   
    35    18    19 1   
    36    18    58 1   
    37    18    59 1   
    38    19    20 1   
    39    19    60 1   
    40    19    61 1   
    41    20    21 1   
    42    20    62 1   
    43    20    63 1   
    44    21    64 1   
    45    21    65 1   
    46    22    23 1   
    47    22    66 1   
    48    22    67 1   
    49    23    24 1   
    50    23    42 1   
    51    24    25 1   
    52    25    26 2   
    53    25    27 1   
    54    27    28 1   
    55    27    42 1   
    56    28    29 1   
    57    28    68 1   
    58    28    69 1   
    59    29    30 1   
    60    29    70 1   
    61    29    71 1   
    62    30    31 1   
    63    30    72 1   
    64    31    32 2   
    65    31    33 1   
    66    33    34 ar  
    67    33    41 ar  
    68    34    35 ar  
    69    34    73 1   
    70    35    36 ar  
    71    35    74 1   
    72    36    37 1   
    73    36    40 ar  
    74    37    38 1   
    75    37    77 1   
    76    38    39 2   
    77    38    75 1   
    78    39    40 1   
    79    40    41 ar  
    80    41    76 1   
    81    42    43 2   
@<TRIPOS>SUBSTRUCTURE
     1 B93         1 TEMP              0 ****  ****    0 ROOT
