@<TRIPOS>MOLECULE
B94
   69    71     1     0     0
SMALL
abcg2


@<TRIPOS>ATOM
      1 C1          -3.5110   -16.8230   -12.0870 c3         1 B94      -0.199100
      2 C2          -2.8900   -15.4920   -11.7670 c          1 B94       0.554100
      3 O3          -1.8850   -15.3850   -11.1050 o          1 B94      -0.534100
      4 C4          -3.6230   -14.2750   -12.3120 c3         1 B94       0.026700
      5 C5          -3.2950   -14.0790   -13.7900 c3         1 B94      -0.228400
      6 C6          -4.1860   -13.0140   -14.4780 c          1 B94       0.721000
      7 O7          -5.3410   -12.8800   -14.0340 o          1 B94      -0.730000
      8 O8          -3.6680   -12.4200   -15.4410 o          1 B94      -0.730000
      9 N9          -3.2730   -13.0870   -11.5780 ns         1 B94      -0.445900
     10 C10         -3.8110   -12.7850   -10.3900 c          1 B94       0.590100
     11 O11         -4.7240   -13.4040    -9.8730 o          1 B94      -0.614100
     12 C12         -3.1990   -11.5540    -9.6970 c6         1 B94       0.055900
     13 C13         -3.5140   -10.2980   -10.4500 c2         1 B94      -0.199200
     14 C14         -2.5900    -9.5400   -11.0260 c2         1 B94      -0.223200
     15 C15         -1.1260    -9.8540   -11.0210 c6         1 B94       0.163900
     16 C16         -0.3140    -8.8340   -10.2130 c3         1 B94      -0.126400
     17 N29         -0.9740   -11.2350   -10.5990 n          1 B94      -0.281400
     18 N30         -1.7640   -11.6560    -9.5280 n          1 B94      -0.271400
     19 C31         -1.1700   -12.7590    -8.9680 c          1 B94       0.596000
     20 O32         -1.6510   -13.4820    -8.1260 o          1 B94      -0.515000
     21 N33          0.0590   -12.8660    -9.5710 n          1 B94      -0.359400
     22 C34          1.0590   -13.8570    -9.2200 c3         1 B94       0.111000
     23 C35          2.0260   -13.3670    -8.1530 c3         1 B94      -0.075400
     24 C36          3.0180   -14.4530    -7.7710 c3         1 B94      -0.205400
     25 C37          4.0600   -14.0500    -6.7060 c          1 B94       0.721000
     26 O38          4.6570   -14.9920    -6.1470 o          1 B94      -0.744500
     27 O39          4.2360   -12.8320    -6.5090 o          1 B94      -0.744500
     28 C40          0.2180   -11.9050   -10.5440 c          1 B94       0.600000
     29 O41          1.2030   -11.6920   -11.2150 o          1 B94      -0.537000
     30 C18         -0.6220    -8.7930    -8.7190 c3         1 B94       0.109000
     31 N5           0.1770    -7.7910    -8.0460 ns         1 B94      -0.496900
     32 C19         -0.1880    -6.5730    -7.6040 c          1 B94       0.606100
     33 C20         -1.6540    -6.1910    -7.7130 c3         1 B94      -0.117100
     34 O9           0.6300    -5.7940    -7.1320 o          1 B94      -0.628100
     35 C21         -2.0620    -5.8460    -9.1240 ca         1 B94      -0.073300
     36 C22         -1.2800    -4.9960    -9.9050 ca         1 B94      -0.098500
     37 C23         -1.6590    -4.6570   -11.1940 ca         1 B94      -0.105500
     38 C24         -2.8410    -5.1680   -11.7090 ca         1 B94       0.118000
     39 C25         -3.6440    -6.0030   -10.9500 ca         1 B94      -0.105500
     40 C26         -3.2440    -6.3400    -9.6650 ca         1 B94      -0.098500
     41 CL1         -3.3200    -4.7510   -13.3220 cl         1 B94      -0.208000
     42 H1          -2.7760   -17.6240   -12.0630 hc         1 B94       0.051700
     43 H1A         -4.2670   -17.0300   -11.3250 hc         1 B94       0.051700
     44 H1B         -4.0250   -16.8250   -13.0470 hc         1 B94       0.051700
     45 H4          -4.6980   -14.4470   -12.2290 h1         1 B94       0.106700
     46 H5          -2.2360   -13.8300   -13.9080 hc         1 B94       0.033200
     47 H5A         -3.4420   -15.0250   -14.3220 hc         1 B94       0.033200
     48 HN9         -2.5090   -12.5290   -11.9310 hn         1 B94       0.334500
     49 H12         -3.6430   -11.4980    -8.7020 h1         1 B94       0.104700
     50 H13         -4.5610   -10.0280   -10.5020 ha         1 B94       0.193000
     51 H14         -2.8750    -8.6290   -11.5360 ha         1 B94       0.184000
     52 H15         -0.7710    -9.8120   -12.0540 h1         1 B94       0.097700
     53 H16          0.7500    -9.0320   -10.3610 hc         1 B94       0.059700
     54 H16A        -0.5100    -7.8490   -10.6470 hc         1 B94       0.059700
     55 H34          0.5300   -14.7490    -8.8860 h1         1 B94       0.062200
     56 H34A         1.5930   -14.1270   -10.1310 h1         1 B94       0.062200
     57 H35          2.5540   -12.4860    -8.5200 hc         1 B94       0.047700
     58 H35A         1.4570   -13.0500    -7.2740 hc         1 B94       0.047700
     59 H36          2.4820   -15.3420    -7.4250 hc         1 B94       0.018200
     60 H36A         3.5630   -14.7770    -8.6660 hc         1 B94       0.018200
     61 H22         -1.6790    -8.6010    -8.5450 h1         1 B94       0.062700
     62 H23         -0.4050    -9.7560    -8.2540 h1         1 B94       0.062700
     63 H24          1.1660    -7.9870    -7.9820 hn         1 B94       0.323500
     64 H25         -2.2970    -6.9810    -7.3230 hc         1 B94       0.070700
     65 H26         -1.7990    -5.3220    -7.0690 hc         1 B94       0.070700
     66 H27         -0.3610    -4.5830    -9.5090 ha         1 B94       0.125000
     67 H28         -1.0390    -4.0000   -11.7890 ha         1 B94       0.129500
     68 H29         -4.5670    -6.3980   -11.3540 ha         1 B94       0.129500
     69 H30         -3.8680    -7.0030    -9.0790 ha         1 B94       0.125000
@<TRIPOS>BOND
     1     1     2 1   
     2     1    42 1   
     3     1    43 1   
     4     1    44 1   
     5     2     3 2   
     6     2     4 1   
     7     4     5 1   
     8     4     9 1   
     9     4    45 1   
    10     5     6 1   
    11     5    46 1   
    12     5    47 1   
    13     6     7 1   
    14     6     8 1   
    15     9    10 1   
    16     9    48 1   
    17    10    11 2   
    18    10    12 1   
    19    12    13 1   
    20    12    18 1   
    21    12    49 1   
    22    13    14 2   
    23    13    50 1   
    24    14    15 1   
    25    14    51 1   
    26    15    16 1   
    27    15    17 1   
    28    15    52 1   
    29    16    30 1   
    30    16    53 1   
    31    16    54 1   
    32    17    18 1   
    33    17    28 1   
    34    18    19 1   
    35    19    20 2   
    36    19    21 1   
    37    21    22 1   
    38    21    28 1   
    39    22    23 1   
    40    22    55 1   
    41    22    56 1   
    42    23    24 1   
    43    23    57 1   
    44    23    58 1   
    45    24    25 1   
    46    24    59 1   
    47    24    60 1   
    48    25    26 1   
    49    25    27 1   
    50    28    29 2   
    51    30    31 1   
    52    30    61 1   
    53    30    62 1   
    54    31    32 1   
    55    31    63 1   
    56    32    33 1   
    57    32    34 2   
    58    33    35 1   
    59    33    64 1   
    60    33    65 1   
    61    35    36 ar  
    62    35    40 ar  
    63    36    37 ar  
    64    36    66 1   
    65    37    38 ar  
    66    37    67 1   
    67    38    39 ar  
    68    38    41 1   
    69    39    40 ar  
    70    39    68 1   
    71    40    69 1   
@<TRIPOS>SUBSTRUCTURE
     1 B94         1 TEMP              0 ****  ****    0 ROOT
