@<TRIPOS>MOLECULE
B94
   69    71     1     0     0
SMALL
No Charge or Current Charge


@<TRIPOS>ATOM
      1 C1          -2.5970   -16.9680   -12.2400 c3         1 B94      -0.199100
      2 C2          -2.2440   -15.4850   -12.1100 c          1 B94       0.554100
      3 O3          -1.0770   -15.1230   -11.9880 o          1 B94      -0.534100
      4 C4          -3.4320   -14.4800   -12.1040 c3         1 B94       0.026700
      5 C5          -3.9420   -14.1570   -13.5370 c3         1 B94      -0.228400
      6 C6          -5.2310   -13.3240   -13.4980 c          1 B94       0.721000
      7 O7          -6.2930   -13.9220   -13.4230 o          1 B94      -0.730000
      8 O8          -5.1380   -12.1070   -13.5520 o          1 B94      -0.730000
      9 N9          -3.0400   -13.2610   -11.3680 ns         1 B94      -0.445900
     10 C10         -3.7900   -12.6240   -10.4000 c          1 B94       0.590100
     11 O11         -4.9040   -13.0140   -10.0720 o          1 B94      -0.614100
     12 C12         -3.1010   -11.4090    -9.7210 c6         1 B94       0.055900
     13 C13         -3.3320   -10.1410   -10.5530 c2         1 B94      -0.199200
     14 C14         -2.3450    -9.3750   -11.0600 c2         1 B94      -0.223200
     15 C15         -0.8620    -9.6410   -10.8380 c6         1 B94       0.163900
     16 C16         -0.2900    -8.5510    -9.8890 c3         1 B94      -0.126400
     17 N29         -0.6670   -10.9950   -10.3000 n          1 B94      -0.281400
     18 N30         -1.6500   -11.6190    -9.4420 n          1 B94      -0.271400
     19 C31         -1.0820   -12.8320    -9.0110 c          1 B94       0.596000
     20 O32         -1.6330   -13.6900    -8.3400 o          1 B94      -0.515000
     21 N33          0.1840   -12.9010    -9.5600 n          1 B94      -0.359400
     22 C34          1.0690   -14.0710    -9.4320 c3         1 B94       0.111000
     23 C35          2.0420   -13.9510    -8.2410 c3         1 B94      -0.075400
     24 C36          2.9780   -15.1760    -8.0950 c3         1 B94      -0.205400
     25 C37          3.9190   -14.9890    -6.8910 c          1 B94       0.721000
     26 O38          3.5370   -15.3710    -5.7950 o          1 B94      -0.744500
     27 O39          4.9840   -14.4200    -7.0750 o          1 B94      -0.744500
     28 C40          0.4550   -11.8230   -10.3770 c          1 B94       0.600000
     29 O41          1.4740   -11.6190   -11.0190 o          1 B94      -0.537000
     30 C18         -0.8430    -8.5740    -8.4470 c3         1 B94       0.109000
     31 N5          -0.2180    -7.5440    -7.6100 ns         1 B94      -0.496900
     32 C19         -0.5490    -6.2080    -7.5970 c          1 B94       0.606100
     33 C20         -2.0070    -5.8030    -7.8840 c3         1 B94      -0.117100
     34 O9           0.3060    -5.3830    -7.3110 o          1 B94      -0.628100
     35 C21         -2.2320    -5.4670    -9.3580 ca         1 B94      -0.073300
     36 C22         -1.4520    -4.4810    -9.9950 ca         1 B94      -0.098500
     37 C23         -1.6640    -4.1740   -11.3510 ca         1 B94      -0.105500
     38 C24         -2.6640    -4.8430   -12.0740 ca         1 B94       0.118000
     39 C25         -3.4540    -5.8170   -11.4440 ca         1 B94      -0.105500
     40 C26         -3.2390    -6.1290   -10.0900 ca         1 B94      -0.098500
     41 Cl1         -2.9300    -4.4580   -13.7690 cl         1 B94      -0.208000
     42 H1          -1.7170   -17.6190   -12.1840 hc         1 B94       0.051700
     43 H1A         -3.3410   -17.2270   -11.4780 hc         1 B94       0.051700
     44 H1B         -3.1540   -17.1270   -13.1700 hc         1 B94       0.051700
     45 H4          -4.2440   -14.9760   -11.5550 h1         1 B94       0.106700
     46 H5          -3.1370   -13.6010   -14.0340 hc         1 B94       0.033200
     47 H5A         -4.1540   -15.1280   -13.9990 hc         1 B94       0.033200
     48 HN9         -2.1350   -12.8500   -11.5690 hn         1 B94       0.334500
     49 H12         -3.6110   -11.2910    -8.7550 h1         1 B94       0.104700
     50 H13         -4.3770    -9.8930   -10.7530 ha         1 B94       0.193000
     51 H14         -2.5810    -8.5030   -11.6710 ha         1 B94       0.184000
     52 H15         -0.3380    -9.5680   -11.8030 h1         1 B94       0.097700
     53 H16          0.8000    -8.6650    -9.8390 hc         1 B94       0.059700
     54 H16A        -0.4690    -7.5610   -10.3260 hc         1 B94       0.059700
     55 H34          0.4560   -14.9730    -9.3110 h1         1 B94       0.062200
     56 H34A         1.6430   -14.1900   -10.3600 h1         1 B94       0.062200
     57 H35          2.6480   -13.0440    -8.3660 hc         1 B94       0.047700
     58 H35A         1.4630   -13.8240    -7.3180 hc         1 B94       0.047700
     59 H36          2.3190   -16.0390    -7.9350 hc         1 B94       0.018200
     60 H36A         3.5540   -15.2270    -9.0270 hc         1 B94       0.018200
     61 H22         -1.9330    -8.4540    -8.4620 h1         1 B94       0.062700
     62 H23         -0.6290    -9.5500    -7.9920 h1         1 B94       0.062700
     63 H24          0.7230    -7.7370    -7.2870 hn         1 B94       0.323500
     64 H25         -2.6740    -6.6220    -7.5990 hc         1 B94       0.070700
     65 H26         -2.2470    -4.9200    -7.2810 hc         1 B94       0.070700
     66 H27         -0.6790    -3.9500    -9.4430 ha         1 B94       0.125000
     67 H28         -1.0570    -3.4160   -11.8390 ha         1 B94       0.129500
     68 H29         -4.2320    -6.3290   -12.0040 ha         1 B94       0.129500
     69 H30         -3.8570    -6.8870    -9.6130 ha         1 B94       0.125000
@<TRIPOS>BOND
     1     1     2 1   
     2     1    42 1   
     3     1    43 1   
     4     1    44 1   
     5     2     3 2   
     6     2     4 1   
     7     4     5 1   
     8     4     9 1   
     9     4    45 1   
    10     5     6 1   
    11     5    46 1   
    12     5    47 1   
    13     6     7 1   
    14     6     8 1   
    15     9    10 1   
    16     9    48 1   
    17    10    11 2   
    18    10    12 1   
    19    12    13 1   
    20    12    18 1   
    21    12    49 1   
    22    13    14 2   
    23    13    50 1   
    24    14    15 1   
    25    14    51 1   
    26    15    16 1   
    27    15    17 1   
    28    15    52 1   
    29    16    30 1   
    30    16    53 1   
    31    16    54 1   
    32    17    18 1   
    33    17    28 1   
    34    18    19 1   
    35    19    20 2   
    36    19    21 1   
    37    21    22 1   
    38    21    28 1   
    39    22    23 1   
    40    22    55 1   
    41    22    56 1   
    42    23    24 1   
    43    23    57 1   
    44    23    58 1   
    45    24    25 1   
    46    24    59 1   
    47    24    60 1   
    48    25    26 1   
    49    25    27 1   
    50    28    29 2   
    51    30    31 1   
    52    30    61 1   
    53    30    62 1   
    54    31    32 1   
    55    31    63 1   
    56    32    33 1   
    57    32    34 2   
    58    33    35 1   
    59    33    64 1   
    60    33    65 1   
    61    35    36 ar  
    62    35    40 ar  
    63    36    37 ar  
    64    36    66 1   
    65    37    38 ar  
    66    37    67 1   
    67    38    39 ar  
    68    38    41 1   
    69    39    40 ar  
    70    39    68 1   
    71    40    69 1   
@<TRIPOS>SUBSTRUCTURE
     1 B94         1 TEMP              0 ****  ****    0 ROOT
