@<TRIPOS>MOLECULE
B95
   39    41     1     0     0
SMALL
No Charge or Current Charge


@<TRIPOS>ATOM
      1 OAA          0.3670    -0.8570     0.3670 o          1 B95      -0.551100
      2 CAC          6.7210     2.0130    -0.0940 ca         1 B95      -0.147000
      3 CAD          5.6190     2.8350    -0.3800 ca         1 B95      -0.060000
      4 CAE         -8.7040    -0.8410     0.7940 ca         1 B95      -0.091000
      5 CAF         -8.6240    -1.2070    -0.5700 ca         1 B95      -0.134000
      6 CAG          6.5220     0.6700     0.2690 ca         1 B95      -0.048000
      7 CAH          4.3140     2.3160    -0.3050 ca         1 B95      -0.203000
      8 CAI         -7.6400    -0.1480     1.4050 ca         1 B95      -0.116000
      9 CAJ         -7.4780    -0.8810    -1.3300 ca         1 B95      -0.046000
     10 CAL         -3.2600     1.4340    -0.3200 c3         1 B95      -0.106700
     11 CAM          1.6440     1.1740    -0.1290 c3         1 B95       0.075600
     12 NAN         -5.3770     0.8130     0.9750 na         1 B95      -0.312600
     13 NAO         -0.8150     0.9990    -0.2090 ns         1 B95      -0.521900
     14 NAP         -5.2310     0.2230    -1.2530 nc         1 B95      -0.569100
     15 OAQ          2.8430     0.4140     0.1460 os         1 B95      -0.294100
     16 CAR          0.3640     0.3240     0.0400 c          1 B95       0.601100
     17 CAS          5.2190     0.1480     0.3450 ca         1 B95      -0.055900
     18 CAT         -4.6290     0.8230    -0.2080 cd         1 B95       0.409800
     19 CAU          4.1060     0.9660     0.0590 ca         1 B95       0.163100
     20 CAV         -6.5220     0.1570     0.6180 ca         1 B95      -0.078200
     21 CAW         -6.4310    -0.1900    -0.7010 ca         1 B95       0.069400
     22 HAC          7.7290     2.4160    -0.1520 ha         1 B95       0.120000
     23 HAD          5.7760     3.8750    -0.6600 ha         1 B95       0.114000
     24 HAF         -9.4470    -1.7410    -1.0380 ha         1 B95       0.115000
     25 HAG          7.3780     0.0350     0.4900 ha         1 B95       0.130000
     26 HAH          3.4810     2.9750    -0.5320 ha         1 B95       0.113000
     27 HAI         -7.6870     0.1400     2.4540 ha         1 B95       0.117000
     28 HAJ         -7.4070    -1.1570    -2.3790 ha         1 B95       0.130000
     29 HAL         -3.1500     2.2350     0.4210 hc         1 B95       0.057200
     30 HALA        -3.1410     1.9000    -1.3060 hc         1 B95       0.057200
     31 HAM          1.5640     2.0300     0.5540 h1         1 B95       0.049200
     32 HAMA         1.6540     1.5550    -1.1570 h1         1 B95       0.049200
     33 HNAO        -0.7410     1.9740    -0.4770 hn         1 B95       0.309500
     34 HNAN        -5.1180     1.2040     1.8720 hn         1 B95       0.355000
     35 BrAB         4.9790    -1.6890     0.8420 br         1 B95      -0.067100
     36 CAK         -2.1460     0.3940    -0.1120 c3         1 B95       0.112000
     37 HAE         -9.5900    -1.0960     1.3730 ha         1 B95       0.113000
     38 HAK         -2.2570    -0.0690     0.8780 h1         1 B95       0.071700
     39 HAKA        -2.2340    -0.3960    -0.8700 h1         1 B95       0.071700
@<TRIPOS>BOND
     1     1    16 2   
     2     2     3 ar  
     3     2     6 ar  
     4     2    22 1   
     5     3     7 ar  
     6     3    23 1   
     7     4     5 ar  
     8     4     8 ar  
     9     4    37 1   
    10     5     9 ar  
    11     5    24 1   
    12     6    17 ar  
    13     6    25 1   
    14     7    19 ar  
    15     7    26 1   
    16     8    20 ar  
    17     8    27 1   
    18     9    21 ar  
    19     9    28 1   
    20    10    18 1   
    21    10    29 1   
    22    10    30 1   
    23    10    36 1   
    24    11    15 1   
    25    11    16 1   
    26    11    31 1   
    27    11    32 1   
    28    12    18 1   
    29    12    20 1   
    30    12    34 1   
    31    13    16 1   
    32    13    33 1   
    33    13    36 1   
    34    14    18 2   
    35    14    21 1   
    36    15    19 1   
    37    17    19 ar  
    38    17    35 1   
    39    20    21 ar  
    40    36    38 1   
    41    36    39 1   
@<TRIPOS>SUBSTRUCTURE
     1 B95         1 TEMP              0 ****  ****    0 ROOT
