@<TRIPOS>MOLECULE
B95
   39    41     1     0     0
SMALL
bcc


@<TRIPOS>ATOM
      1 OAA          0.4430    -0.8410    -0.2840 o          1 B95      -0.551100
      2 CAC          6.5850     1.9180    -0.2170 ca         1 B95      -0.165000
      3 CAD          5.5170     2.7790    -0.4060 ca         1 B95      -0.078000
      4 CAE         -8.7300    -0.6670     0.4920 ca         1 B95      -0.109000
      5 CAF         -8.3380    -1.4100    -0.6320 ca         1 B95      -0.152000
      6 CAG          6.3430     0.5820     0.0770 ca         1 B95      -0.066000
      7 CAH          4.2100     2.3200    -0.3080 ca         1 B95      -0.221000
      8 CAI         -7.8630     0.2140     1.1160 ca         1 B95      -0.134000
      9 CAJ         -7.0670    -1.2930    -1.1680 ca         1 B95      -0.064000
     10 CAL         -3.1640     1.4210     0.0880 c3         1 B95      -0.106700
     11 CAM          1.6110     1.2580    -0.1580 c3         1 B95       0.052400
     12 NAN         -5.4920     1.0710     0.9100 na         1 B95      -0.262300
     13 NAO         -0.7630     1.0310     0.0710 ns         1 B95      -0.588900
     14 NAP         -4.8760    -0.1010    -0.8680 nc         1 B95      -0.569100
     15 OAQ          2.7290     0.4470     0.0930 os         1 B95      -0.270900
     16 CAR          0.3820     0.3630    -0.1180 c          1 B95       0.668100
     17 CAS          5.0410     0.1230     0.1750 ca         1 B95      -0.055900
     18 CAT         -4.5070     0.7800     0.0230 cd         1 B95       0.409800
     19 CAU          3.9530     0.9820    -0.0190 ca         1 B95       0.163100
     20 CAV         -6.5890     0.3240     0.5710 ca         1 B95      -0.078200
     21 CAW         -6.1780    -0.4110    -0.5540 ca         1 B95       0.069400
     22 HAC          7.6030     2.2740    -0.2950 ha         1 B95       0.138000
     23 HAD          5.6910     3.8220    -0.6320 ha         1 B95       0.132000
     24 HAF         -9.0470    -2.0890    -1.0880 ha         1 B95       0.133000
     25 HAG          7.1710    -0.0970     0.2280 ha         1 B95       0.148000
     26 HAH          3.3980     3.0200    -0.4540 ha         1 B95       0.131000
     27 HAI         -8.1660     0.7820     1.9850 ha         1 B95       0.135000
     28 HAJ         -6.7690    -1.8660    -2.0370 ha         1 B95       0.148000
     29 HAL         -3.0870     2.0190     0.9990 hc         1 B95       0.057200
     30 HALA        -3.0560     2.1090    -0.7550 hc         1 B95       0.057200
     31 HAM          1.5270     2.0640     0.5790 h1         1 B95       0.049200
     32 HAMA         1.6650     1.7220    -1.1500 h1         1 B95       0.049200
     33 HNAO        -0.7300     2.0240     0.2420 hn         1 B95       0.309500
     34 HNAN        -5.4200     1.7160     1.6810 hn         1 B95       0.304700
     35 BRAB         4.7160    -1.6890     0.5740 br         1 B95      -0.067100
     36 CAK         -2.0550     0.3780     0.0450 c3         1 B95       0.112000
     37 HAE         -9.7330    -0.7860     0.8800 ha         1 B95       0.131000
     38 HAK         -2.1550    -0.3020     0.8950 h1         1 B95       0.071700
     39 HAKA        -2.1490    -0.2220    -0.8610 h1         1 B95       0.071700
@<TRIPOS>BOND
     1     1    16 2   
     2     2     3 ar  
     3     2     6 ar  
     4     2    22 1   
     5     3     7 ar  
     6     3    23 1   
     7     4     5 ar  
     8     4     8 ar  
     9     4    37 1   
    10     5     9 ar  
    11     5    24 1   
    12     6    17 ar  
    13     6    25 1   
    14     7    19 ar  
    15     7    26 1   
    16     8    20 ar  
    17     8    27 1   
    18     9    21 ar  
    19     9    28 1   
    20    10    18 1   
    21    10    29 1   
    22    10    30 1   
    23    10    36 1   
    24    11    15 1   
    25    11    16 1   
    26    11    31 1   
    27    11    32 1   
    28    12    18 1   
    29    12    20 1   
    30    12    34 1   
    31    13    16 1   
    32    13    33 1   
    33    13    36 1   
    34    14    18 2   
    35    14    21 1   
    36    15    19 1   
    37    17    19 ar  
    38    17    35 1   
    39    20    21 ar  
    40    36    38 1   
    41    36    39 1   
@<TRIPOS>SUBSTRUCTURE
     1 B95         1 TEMP              0 ****  ****    0 ROOT
