@<TRIPOS>MOLECULE
B96
   76    80     1     0     0
SMALL
abcg2


@<TRIPOS>ATOM
      1 C1          -0.8810     0.1890     1.3520 c          1 B96       0.672100
      2 O1          -2.0300     0.5050     1.1110 o          1 B96      -0.593100
      3 N2           0.0650    -0.0300     0.4000 ns         1 B96      -0.178000
      4 C3          -0.1760     0.1010    -0.9830 ca         1 B96      -0.072000
      5 C4           0.6080     1.0190    -1.7380 ca         1 B96      -0.010000
      6 C5           0.4270     1.0950    -3.1430 ca         1 B96      -0.054000
      7 C6          -0.5720     0.2840    -3.7630 ca         1 B96       0.166100
      8 C31          1.5730     1.8580    -1.1340 ca         1 B96      -0.118000
      9 C32          2.3320     2.7140    -1.8870 ca         1 B96      -0.090000
     10 C33          2.1660     2.7710    -3.2830 ca         1 B96      -0.127000
     11 C34          1.2320     1.9800    -3.8970 ca         1 B96      -0.066000
     12 C7          -1.3440    -0.5570    -2.9990 ca         1 B96      -0.217000
     13 C8          -1.1220    -0.6570    -1.6130 ca         1 B96      -0.050000
     14 N9          -0.4060     0.0090     2.6300 ns         1 B96      -0.422100
     15 C10         -1.1570     0.1880     3.7710 cc         1 B96       0.031600
     16 C14         -2.3770     0.7770     4.0110 cd         1 B96      -0.234000
     17 C13         -2.5430     0.6910     5.4120 cd         1 B96       0.281300
     18 N12         -1.5160     0.1010     5.9790 nc         1 B96      -0.512800
     19 N11         -0.6780    -0.2210     4.9750 na         1 B96       0.173000
     20 C15          0.5630    -0.8290     5.2610 ca         1 B96       0.008800
     21 C17         -3.5640     0.8510     7.6910 c3         1 B96      -0.079433
     22 C18         -3.7660     2.7370     6.0680 c3         1 B96      -0.079433
     23 C19         -5.0090     0.6060     5.6700 c3         1 B96      -0.079433
     24 C16         -3.7080     1.2100     6.2130 c3         1 B96      -0.073300
     25 C20          1.4010    -0.2560     6.2100 ca         1 B96      -0.107000
     26 C21          2.6200    -0.8480     6.4960 ca         1 B96      -0.105000
     27 C22          3.0370    -2.0050     5.8380 ca         1 B96      -0.072300
     28 C23          2.1830    -2.5620     4.8900 ca         1 B96      -0.105000
     29 C24          0.9500    -1.9930     4.6080 ca         1 B96      -0.107000
     30 C25          4.3530    -2.6440     6.1670 c3         1 B96      -0.048800
     31 O41         -0.6720     0.4190    -5.0910 os         1 B96      -0.329100
     32 C42         -1.5560    -0.4210    -5.8120 c3         1 B96       0.165600
     33 C43         -1.2960    -0.2240    -7.2900 c3         1 B96       0.169800
     34 N44          0.0480    -0.5780    -7.6880 n3         1 B96      -0.711600
     35 C45          0.3760    -0.0690    -9.0050 c6         1 B96       0.127800
     36 C46          1.8210    -0.3860    -9.3400 c6         1 B96       0.153600
     37 O47          2.0750    -1.7720    -9.2800 os         1 B96      -0.449000
     38 C48          1.7500    -2.2840    -8.0070 c6         1 B96       0.153600
     39 C49          0.3050    -2.0050    -7.6390 c6         1 B96       0.127800
     40 H2           1.0030    -0.2710     0.6830 hn         1 B96       0.151000
     41 H31          1.7080     1.8310    -0.0610 ha         1 B96       0.110000
     42 H32          3.0620     3.3510    -1.4050 ha         1 B96       0.112000
     43 H33          2.7730     3.4440    -3.8720 ha         1 B96       0.115000
     44 H34          1.1080     2.0330    -4.9690 ha         1 B96       0.133000
     45 H7          -2.1190    -1.1690    -3.4380 ha         1 B96       0.120000
     46 H8          -1.7100    -1.3670    -1.0460 ha         1 B96       0.126000
     47 H9           0.5720    -0.2100     2.7580 hn         1 B96       0.322500
     48 H14         -3.0400     1.2220     3.2930 ha         1 B96       0.169000
     49 H171        -4.4220     1.2340     8.2470 hc         1 B96       0.036367
     50 H172        -3.5240    -0.2290     7.8410 hc         1 B96       0.036367
     51 H173        -2.6620     1.2810     8.1270 hc         1 B96       0.036367
     52 H181        -2.8500     3.2050     6.4330 hc         1 B96       0.036367
     53 H182        -3.9050     3.0390     5.0280 hc         1 B96       0.036367
     54 H183        -4.6030     3.1390     6.6440 hc         1 B96       0.036367
     55 H191        -5.0190    -0.4800     5.7790 hc         1 B96       0.036367
     56 H192        -5.8660     1.0070     6.2150 hc         1 B96       0.036367
     57 H193        -5.1520     0.8380     4.6140 hc         1 B96       0.036367
     58 H20          1.1010     0.6510     6.7180 ha         1 B96       0.132500
     59 H21          3.2660    -0.3910     7.2360 ha         1 B96       0.117500
     60 H23          2.4760    -3.4660     4.3700 ha         1 B96       0.117500
     61 H24          0.2910    -2.4670     3.8910 ha         1 B96       0.132500
     62 H251         4.2410    -3.3660     6.9790 hc         1 B96       0.045367
     63 H252         4.7640    -3.1790     5.3120 hc         1 B96       0.045367
     64 H253         5.0860    -1.9050     6.4900 hc         1 B96       0.045367
     65 H421        -1.4130    -1.4660    -5.5200 h1         1 B96       0.038700
     66 H422        -2.5970    -0.1640    -5.5920 h1         1 B96       0.038700
     67 H431        -2.0650    -0.7960    -7.8360 h1         1 B96       0.044700
     68 H432        -1.4620     0.8280    -7.5370 h1         1 B96       0.044700
     69 H451        -0.2810    -0.4890    -9.7870 h1         1 B96       0.039700
     70 H452         0.2410     1.0160    -9.0210 h1         1 B96       0.039700
     71 H461         2.0540    -0.0530   -10.3520 h1         1 B96       0.052200
     72 H462         2.4800     0.1550    -8.6450 h1         1 B96       0.052200
     73 H481         1.9280    -3.3600    -8.0320 h1         1 B96       0.052200
     74 H482         2.4050    -1.8490    -7.2400 h1         1 B96       0.052200
     75 H491         0.1350    -2.3900    -6.6320 h1         1 B96       0.039700
     76 H492        -0.3660    -2.5620    -8.3160 h1         1 B96       0.039700
@<TRIPOS>BOND
     1     1     2 2   
     2     1     3 1   
     3     1    14 1   
     4     3     4 1   
     5     3    40 1   
     6     4     5 ar  
     7     4    13 ar  
     8     5     6 ar  
     9     5     8 ar  
    10     6     7 ar  
    11     6    11 ar  
    12     7    12 ar  
    13     7    31 1   
    14     8     9 ar  
    15     8    41 1   
    16     9    10 ar  
    17     9    42 1   
    18    10    11 ar  
    19    10    43 1   
    20    11    44 1   
    21    12    13 ar  
    22    12    45 1   
    23    13    46 1   
    24    14    15 1   
    25    14    47 1   
    26    15    16 2   
    27    15    19 1   
    28    16    17 1   
    29    16    48 1   
    30    17    18 2   
    31    17    24 1   
    32    18    19 1   
    33    19    20 1   
    34    20    25 ar  
    35    20    29 ar  
    36    21    24 1   
    37    21    49 1   
    38    21    50 1   
    39    21    51 1   
    40    22    24 1   
    41    22    52 1   
    42    22    53 1   
    43    22    54 1   
    44    23    24 1   
    45    23    55 1   
    46    23    56 1   
    47    23    57 1   
    48    25    26 ar  
    49    25    58 1   
    50    26    27 ar  
    51    26    59 1   
    52    27    28 ar  
    53    27    30 1   
    54    28    29 ar  
    55    28    60 1   
    56    29    61 1   
    57    30    62 1   
    58    30    63 1   
    59    30    64 1   
    60    31    32 1   
    61    32    33 1   
    62    32    65 1   
    63    32    66 1   
    64    33    34 1   
    65    33    67 1   
    66    33    68 1   
    67    34    35 1   
    68    34    39 1   
    69    35    36 1   
    70    35    69 1   
    71    35    70 1   
    72    36    37 1   
    73    36    71 1   
    74    36    72 1   
    75    37    38 1   
    76    38    39 1   
    77    38    73 1   
    78    38    74 1   
    79    39    75 1   
    80    39    76 1   
@<TRIPOS>SUBSTRUCTURE
     1 B96         1 TEMP              0 ****  ****    0 ROOT
