@<TRIPOS>MOLECULE
B96
   76    80     1     0     0
SMALL
No Charge or Current Charge


@<TRIPOS>ATOM
      1 C1          -1.0780     0.4060     1.4610 c          1 B96       0.672100
      2 O1          -2.2550     0.6480     1.2320 o          1 B96      -0.593100
      3 N2          -0.0880     0.3290     0.4910 ns         1 B96      -0.178000
      4 C3          -0.1360     0.4230    -0.9330 ca         1 B96      -0.072000
      5 C4           1.0550     0.6790    -1.6620 ca         1 B96      -0.010000
      6 C5           1.0170     0.7590    -3.0790 ca         1 B96      -0.054000
      7 C6          -0.2050     0.5800    -3.7670 ca         1 B96       0.166100
      8 C31          2.2930     0.8660    -0.9980 ca         1 B96      -0.118000
      9 C32          3.4670     1.1200    -1.7240 ca         1 B96      -0.090000
     10 C33          3.4250     1.1940    -3.1220 ca         1 B96      -0.127000
     11 C34          2.2080     1.0150    -3.7970 ca         1 B96      -0.066000
     12 C7          -1.3800     0.3160    -3.0370 ca         1 B96      -0.217000
     13 C8          -1.3440     0.2360    -1.6380 ca         1 B96      -0.050000
     14 N9          -0.5750     0.1930     2.7290 ns         1 B96      -0.422100
     15 C10         -1.2450     0.2020     3.9510 cc         1 B96       0.031600
     16 C14         -2.5580     0.4540     4.2170 cd         1 B96      -0.234000
     17 C13         -2.7430     0.3600     5.6230 cd         1 B96       0.281300
     18 N12         -1.6180     0.0610     6.2600 nc         1 B96      -0.512800
     19 N11         -0.7240    -0.0220     5.2190 na         1 B96       0.173000
     20 C15          0.6060    -0.3710     5.4640 ca         1 B96       0.008800
     21 C17         -3.9240     0.3960     7.9000 c3         1 B96      -0.079433
     22 C18         -4.5850     2.0040     6.0710 c3         1 B96      -0.079433
     23 C19         -5.1030    -0.4630     5.8410 c3         1 B96      -0.079433
     24 C16         -4.0680     0.5700     6.3590 c3         1 B96      -0.073300
     25 C20          1.4040     0.4220     6.3120 ca         1 B96      -0.107000
     26 C21          2.7460     0.0770     6.5520 ca         1 B96      -0.105000
     27 C22          3.3050    -1.0640     5.9460 ca         1 B96      -0.072300
     28 C23          2.5070    -1.8610     5.1050 ca         1 B96      -0.105000
     29 C24          1.1650    -1.5180     4.8650 ca         1 B96      -0.107000
     30 C25          4.7550    -1.4390     6.2090 c3         1 B96      -0.048800
     31 O41         -0.2160     0.6650    -5.1480 os         1 B96      -0.329100
     32 C42         -1.4060     0.4500    -5.9330 c3         1 B96       0.165600
     33 C43         -1.0540     0.6060    -7.4370 c3         1 B96       0.169800
     34 N44         -0.0010    -0.3080    -7.9700 n3         1 B96      -0.711600
     35 C45          0.3860     0.0230    -9.3770 c6         1 B96       0.127800
     36 C46          1.5060    -0.9200    -9.9080 c6         1 B96       0.153600
     37 O47          1.1010    -2.3040    -9.7790 os         1 B96      -0.449000
     38 C48          0.7980    -2.6700    -8.4120 c6         1 B96       0.153600
     39 C49         -0.3360    -1.7640    -7.8450 c6         1 B96       0.127800
     40 H2           0.8400     0.1610     0.8540 hn         1 B96       0.151000
     41 H31          2.3660     0.8200     0.0850 ha         1 B96       0.110000
     42 H32          4.4100     1.2610    -1.2000 ha         1 B96       0.112000
     43 H33          4.3350     1.3910    -3.6840 ha         1 B96       0.115000
     44 H34          2.2000     1.0770    -4.8830 ha         1 B96       0.133000
     45 H7          -2.3330     0.1650    -3.5350 ha         1 B96       0.120000
     46 H8          -2.2690     0.0090    -1.1160 ha         1 B96       0.126000
     47 H9           0.4200     0.0090     2.7530 hn         1 B96       0.322500
     48 H14         -3.3330     0.6880     3.4980 ha         1 B96       0.169000
     49 H171        -4.8860     0.5520     8.4030 hc         1 B96       0.036367
     50 H172        -3.5750    -0.6120     8.1530 hc         1 B96       0.036367
     51 H173        -3.2110     1.1200     8.3140 hc         1 B96       0.036367
     52 H181        -3.8580     2.7530     6.4090 hc         1 B96       0.036367
     53 H182        -4.7530     2.1580     4.9980 hc         1 B96       0.036367
     54 H183        -5.5330     2.1930     6.5890 hc         1 B96       0.036367
     55 H191        -4.7490    -1.4870     6.0150 hc         1 B96       0.036367
     56 H192        -6.0670    -0.3450     6.3520 hc         1 B96       0.036367
     57 H193        -5.2780    -0.3440     4.7650 hc         1 B96       0.036367
     58 H20          0.9830     1.3080     6.7830 ha         1 B96       0.132500
     59 H21          3.3510     0.6980     7.2090 ha         1 B96       0.117500
     60 H23          2.9250    -2.7510     4.6380 ha         1 B96       0.117500
     61 H24          0.5570    -2.1480     4.2180 ha         1 B96       0.132500
     62 H251         4.8360    -2.1010     7.0780 hc         1 B96       0.045367
     63 H252         5.1960    -1.9580     5.3490 hc         1 B96       0.045367
     64 H253         5.3690    -0.5510     6.4050 hc         1 B96       0.045367
     65 H421        -1.8180    -0.5500    -5.7510 h1         1 B96       0.038700
     66 H422        -2.1750     1.1890    -5.6730 h1         1 B96       0.038700
     67 H431        -1.9800     0.4720    -8.0130 h1         1 B96       0.044700
     68 H432        -0.7400     1.6470    -7.5910 h1         1 B96       0.044700
     69 H451        -0.4870    -0.0600   -10.0420 h1         1 B96       0.039700
     70 H452         0.7410     1.0620    -9.4410 h1         1 B96       0.039700
     71 H461         1.7100    -0.7010   -10.9660 h1         1 B96       0.052200
     72 H462         2.4340    -0.7580    -9.3400 h1         1 B96       0.052200
     73 H481         0.4870    -3.7230    -8.3810 h1         1 B96       0.052200
     74 H482         1.7050    -2.5620    -7.7980 h1         1 B96       0.052200
     75 H491        -0.4970    -2.0360    -6.7920 h1         1 B96       0.039700
     76 H492        -1.2690    -1.9880    -8.3840 h1         1 B96       0.039700
@<TRIPOS>BOND
     1     1     2 2   
     2     1     3 1   
     3     1    14 1   
     4     3     4 1   
     5     3    40 1   
     6     4     5 ar  
     7     4    13 ar  
     8     5     6 ar  
     9     5     8 ar  
    10     6     7 ar  
    11     6    11 ar  
    12     7    12 ar  
    13     7    31 1   
    14     8     9 ar  
    15     8    41 1   
    16     9    10 ar  
    17     9    42 1   
    18    10    11 ar  
    19    10    43 1   
    20    11    44 1   
    21    12    13 ar  
    22    12    45 1   
    23    13    46 1   
    24    14    15 1   
    25    14    47 1   
    26    15    16 2   
    27    15    19 1   
    28    16    17 1   
    29    16    48 1   
    30    17    18 2   
    31    17    24 1   
    32    18    19 1   
    33    19    20 1   
    34    20    25 ar  
    35    20    29 ar  
    36    21    24 1   
    37    21    49 1   
    38    21    50 1   
    39    21    51 1   
    40    22    24 1   
    41    22    52 1   
    42    22    53 1   
    43    22    54 1   
    44    23    24 1   
    45    23    55 1   
    46    23    56 1   
    47    23    57 1   
    48    25    26 ar  
    49    25    58 1   
    50    26    27 ar  
    51    26    59 1   
    52    27    28 ar  
    53    27    30 1   
    54    28    29 ar  
    55    28    60 1   
    56    29    61 1   
    57    30    62 1   
    58    30    63 1   
    59    30    64 1   
    60    31    32 1   
    61    32    33 1   
    62    32    65 1   
    63    32    66 1   
    64    33    34 1   
    65    33    67 1   
    66    33    68 1   
    67    34    35 1   
    68    34    39 1   
    69    35    36 1   
    70    35    69 1   
    71    35    70 1   
    72    36    37 1   
    73    36    71 1   
    74    36    72 1   
    75    37    38 1   
    76    38    39 1   
    77    38    73 1   
    78    38    74 1   
    79    39    75 1   
    80    39    76 1   
@<TRIPOS>SUBSTRUCTURE
     1 B96         1 TEMP              0 ****  ****    0 ROOT
