@<TRIPOS>MOLECULE
B98
   34    36     1     0     0
SMALL
No Charge or Current Charge


@<TRIPOS>ATOM
      1 C4          83.1310   262.8240   106.1010 ca         1 B98      -0.112000
      2 C5          84.4950   262.5940   106.3580 ca         1 B98      -0.055000
      3 C19         82.5510   261.8760   108.2780 ca         1 B98      -0.162000
      4 C18         83.9220   261.6520   108.5260 ca         1 B98      -0.083800
      5 C17         84.5050   261.0540   109.7200 cc         1 B98       0.229800
      6 C3          82.1560   262.4680   107.0530 ca         1 B98       0.126100
      7 C6          84.8590   262.0060   107.5780 ca         1 B98      -0.174000
      8 C8          85.8880   260.9350   109.5910 cd         1 B98      -0.220600
      9 C9          86.8800   260.3620   110.5430 c          1 B98       0.605200
     10 C15         84.0980   260.1720   112.0830 c3         1 B98       0.210800
     11 C12         85.1650   259.0680   111.9450 c3         1 B98       0.075700
     12 C1          79.7570   262.3940   107.6400 c3         1 B98       0.147900
     13 C13         84.7860   257.9000   110.9820 c3         1 B98       0.132800
     14 N16         83.7010   260.7320   110.7900 nu         1 B98      -0.815200
     15 N11         86.4860   259.6200   111.6350 ns         1 B98      -0.502900
     16 N14         83.6070   257.1100   111.4310 n8         1 B98      -0.994200
     17 O10         88.0790   260.5120   110.3740 o          1 B98      -0.587000
     18 O2          80.8340   262.7180   106.7410 os         1 B98      -0.347100
     19 S7          86.5140   261.6480   108.0720 ss         1 B98       0.142400
     20 H4          82.8270   263.2790   105.1620 ha         1 B98       0.131000
     21 H5          85.2500   262.8680   105.6250 ha         1 B98       0.128000
     22 H19         81.8130   261.5910   109.0200 ha         1 B98       0.109000
     23 H15         83.2150   259.7520   112.5840 h1         1 B98       0.051200
     24 H15A        84.4880   260.9690   112.7310 h1         1 B98       0.051200
     25 H12         85.2700   258.6250   112.9440 h1         1 B98       0.052700
     26 H1          79.8650   262.9350   108.5890 h1         1 B98       0.041700
     27 H1A         78.7940   262.6750   107.1960 h1         1 B98       0.041700
     28 H1B         79.7340   261.3160   107.8480 h1         1 B98       0.041700
     29 H13         84.5960   258.2900   109.9730 h1         1 B98       0.069700
     30 H13A        85.6460   257.2170   110.9110 h1         1 B98       0.069700
     31 HN16        82.7180   260.9770   110.6750 hn         1 B98       0.486000
     32 HN11        87.2550   259.3230   112.2230 hn         1 B98       0.320500
     33 HN14        83.7520   256.7920   112.3970 hn         1 B98       0.393500
     34 HN1A        82.7900   257.7290   111.4920 hn         1 B98       0.393500
@<TRIPOS>BOND
     1     1     2 ar  
     2     1     6 ar  
     3     1    20 1   
     4     2     7 ar  
     5     2    21 1   
     6     3     4 ar  
     7     3     6 ar  
     8     3    22 1   
     9     4     5 1   
    10     4     7 ar  
    11     5     8 2   
    12     5    14 1   
    13     6    18 1   
    14     7    19 1   
    15     8     9 1   
    16     8    19 1   
    17     9    15 1   
    18     9    17 2   
    19    10    11 1   
    20    10    14 1   
    21    10    23 1   
    22    10    24 1   
    23    11    13 1   
    24    11    15 1   
    25    11    25 1   
    26    12    18 1   
    27    12    26 1   
    28    12    27 1   
    29    12    28 1   
    30    13    16 1   
    31    13    29 1   
    32    13    30 1   
    33    14    31 1   
    34    15    32 1   
    35    16    33 1   
    36    16    34 1   
@<TRIPOS>SUBSTRUCTURE
     1 B98         1 TEMP              0 ****  ****    0 ROOT
