@<TRIPOS>MOLECULE
B98
   34    36     1     0     0
SMALL
abcg2


@<TRIPOS>ATOM
      1 C4          83.1330   262.8920   106.1790 ca         1 B98      -0.112000
      2 C5          84.4690   262.6690   106.4360 ca         1 B98      -0.055000
      3 C19         82.4940   261.8510   108.2750 ca         1 B98      -0.162000
      4 C18         83.8540   261.6200   108.5420 ca         1 B98      -0.083800
      5 C17         84.4330   260.9800   109.7080 cc         1 B98       0.229800
      6 C3          82.1410   262.4830   107.0930 ca         1 B98       0.126100
      7 C6          84.8340   262.0260   107.6230 ca         1 B98      -0.174000
      8 C8          85.8160   260.9070   109.6290 cd         1 B98      -0.220600
      9 C9          86.8500   260.3360   110.4870 c          1 B98       0.605200
     10 C15         84.1570   260.1690   112.0180 c3         1 B98       0.210800
     11 C12         85.2250   259.0720   111.9720 c3         1 B98       0.075700
     12 C1          79.8080   262.3710   107.6030 c3         1 B98       0.147900
     13 C13         84.8160   257.8630   111.1090 c3         1 B98       0.132800
     14 N16         83.6450   260.5140   110.7090 nu         1 B98      -0.815200
     15 N11         86.5260   259.5880   111.5700 ns         1 B98      -0.502900
     16 N14         83.5530   257.2270   111.4690 n8         1 B98      -0.994200
     17 O10         88.0490   260.5380   110.2140 o          1 B98      -0.587000
     18 O2          80.8610   262.7540   106.7200 os         1 B98      -0.347100
     19 S7          86.4430   261.6440   108.1530 ss         1 B98       0.142400
     20 H4          82.8220   263.3870   105.2680 ha         1 B98       0.131000
     21 H5          85.2220   262.9890   105.7270 ha         1 B98       0.128000
     22 H19         81.7360   261.5380   108.9780 ha         1 B98       0.109000
     23 H15         83.3140   259.8190   112.6090 h1         1 B98       0.051200
     24 H15A        84.5820   261.0440   112.5220 h1         1 B98       0.051200
     25 H12         85.3560   258.7290   113.0010 h1         1 B98       0.052700
     26 H1          79.9070   262.8710   108.5700 h1         1 B98       0.041700
     27 H1A         78.8860   262.6830   107.1210 h1         1 B98       0.041700
     28 H1B         79.7970   261.2880   107.7520 h1         1 B98       0.041700
     29 H13         84.7610   258.1750   110.0650 h1         1 B98       0.069700
     30 H13A        85.6170   257.1230   111.1780 h1         1 B98       0.069700
     31 HN16        82.6680   260.7470   110.6650 hn         1 B98       0.486000
     32 HN11        87.3290   259.2400   112.0730 hn         1 B98       0.320500
     33 HN14        83.5460   256.9790   112.4540 hn         1 B98       0.393500
     34 HN1A        82.7790   257.8650   111.3210 hn         1 B98       0.393500
@<TRIPOS>BOND
     1     1     2 ar  
     2     1     6 ar  
     3     1    20 1   
     4     2     7 ar  
     5     2    21 1   
     6     3     4 ar  
     7     3     6 ar  
     8     3    22 1   
     9     4     5 1   
    10     4     7 ar  
    11     5     8 2   
    12     5    14 1   
    13     6    18 1   
    14     7    19 1   
    15     8     9 1   
    16     8    19 1   
    17     9    15 1   
    18     9    17 2   
    19    10    11 1   
    20    10    14 1   
    21    10    23 1   
    22    10    24 1   
    23    11    13 1   
    24    11    15 1   
    25    11    25 1   
    26    12    18 1   
    27    12    26 1   
    28    12    27 1   
    29    12    28 1   
    30    13    16 1   
    31    13    29 1   
    32    13    30 1   
    33    14    31 1   
    34    15    32 1   
    35    16    33 1   
    36    16    34 1   
@<TRIPOS>SUBSTRUCTURE
     1 B98         1 TEMP              0 ****  ****    0 ROOT
