@<TRIPOS>MOLECULE
B99
   60    65     1     0     0
SMALL
bcc


@<TRIPOS>ATOM
      1 C1           4.9450     4.4700    -1.3050 c3         1 B99      -0.033900
      2 C2           5.4150     3.5140    -0.2710 cc         1 B99      -0.085300
      3 N1           6.5190     3.6910     0.4600 na         1 B99       0.063800
      4 N2           6.8040     2.7220     1.3260 nc         1 B99      -0.282400
      5 C3           5.8160     1.8450     1.1510 ca         1 B99      -0.061000
      6 C4           5.6000     0.6130     1.8140 ca         1 B99      -0.105000
      7 C5           4.5080    -0.1210     1.4550 ca         1 B99      -0.101000
      8 C6           3.5880     0.3150     0.4500 cp         1 B99      -0.068000
      9 C7           3.7760     1.5120    -0.1890 ca         1 B99      -0.057000
     10 C8           4.9030     2.2870     0.1550 ca         1 B99      -0.155000
     11 C9           2.4140    -0.5310     0.1400 cp         1 B99      -0.104300
     12 C10          1.1430    -0.0390     0.3810 ca         1 B99      -0.126000
     13 C11          0.0230    -0.8340     0.1490 ca         1 B99       0.026800
     14 O1          -1.1780    -0.2930     0.3970 os         1 B99      -0.293900
     15 C12         -2.3310    -1.0990     0.2230 c3         1 B99       0.144400
     16 C13         -3.5660    -0.2710     0.5270 c3         1 B99       0.162500
     17 N3          -3.6680     0.8290    -0.4120 n8         1 B99      -0.872800
     18 C14         -4.7850    -1.2150     0.5670 c3         1 B99      -0.040200
     19 C15         -6.0700    -0.5020     0.8250 cc         1 B99      -0.154400
     20 C16         -6.6310    -0.2350     2.0440 cd         1 B99      -0.098100
     21 N4          -7.7950     0.4630     1.8870 na         1 B99      -0.170400
     22 C17         -8.0250     0.6660     0.5590 ca         1 B99      -0.046200
     23 C18         -9.0750     1.3130    -0.0910 ca         1 B99      -0.143000
     24 C19         -9.0400     1.3560    -1.4720 ca         1 B99      -0.109000
     25 C20         -7.9870     0.7710    -2.1940 ca         1 B99      -0.153000
     26 C21         -6.9470     0.1330    -1.5460 ca         1 B99      -0.088000
     27 C22         -6.9540     0.0730    -0.1470 ca         1 B99      -0.101800
     28 C23          0.2420    -2.1320    -0.3040 ca         1 B99       0.323200
     29 N5           1.4560    -2.5970    -0.5580 nb         1 B99      -0.647000
     30 C24          2.5290    -1.8380    -0.3700 ca         1 B99       0.478800
     31 C25          3.8010    -2.4580    -0.7550 cc         1 B99      -0.286800
     32 C26          4.0130    -3.8720    -0.8910 cc         1 B99      -0.233300
     33 C27          5.2850    -4.0270    -1.3150 cd         1 B99       0.208600
     34 O2           5.8770    -2.8220    -1.4640 os         1 B99      -0.326800
     35 C28          4.9770    -1.8820    -1.1250 cd         1 B99       0.260600
     36 H1           5.3010     4.1870    -2.2960 hc         1 B99       0.054367
     37 H1A          3.8570     4.4860    -1.3400 hc         1 B99       0.054367
     38 H1B          5.2910     5.4830    -1.1030 hc         1 B99       0.054367
     39 H4           6.2770     0.2670     2.5840 ha         1 B99       0.147000
     40 H5           4.3200    -1.0680     1.9440 ha         1 B99       0.139000
     41 H7           3.0830     1.8470    -0.9520 ha         1 B99       0.138000
     42 H10          1.0160     0.9630     0.7740 ha         1 B99       0.155000
     43 H12         -2.3850    -1.4770    -0.8060 h1         1 B99       0.034200
     44 H12A        -2.2900    -1.9660     0.8920 h1         1 B99       0.034200
     45 H13         -3.4550     0.1600     1.5280 h1         1 B99       0.072700
     46 HN3         -3.8660     0.4730    -1.3410 hn         1 B99       0.344300
     47 HN3A        -4.4560     1.4140    -0.1660 hn         1 B99       0.344300
     48 H14         -4.8480    -1.7590    -0.3830 hc         1 B99       0.048700
     49 H14A        -4.6210    -1.9700     1.3410 hc         1 B99       0.048700
     50 H16         -6.2810    -0.5010     3.0300 h4         1 B99       0.164000
     51 H18         -9.8890     1.7630     0.4620 ha         1 B99       0.132000
     52 H19         -9.8410     1.8490    -2.0070 ha         1 B99       0.130000
     53 H20         -7.9940     0.8230    -3.2760 ha         1 B99       0.131000
     54 H21         -6.1420    -0.3170    -2.1140 ha         1 B99       0.129000
     55 H23         -0.5750    -2.8210    -0.4770 h4         1 B99       0.019100
     56 H26          3.3010    -4.6540    -0.6880 ha         1 B99       0.170000
     57 H27          5.8830    -4.8940    -1.5440 h4         1 B99       0.050100
     58 H28          5.3010    -0.8580    -1.2130 h4         1 B99       0.061100
     59 HN1          7.1340     4.4900     0.4090 hn         1 B99       0.317700
     60 HN4         -8.3960     0.7560     2.6400 hn         1 B99       0.301700
@<TRIPOS>BOND
     1     1     2 1   
     2     1    36 1   
     3     1    37 1   
     4     1    38 1   
     5     2     3 1   
     6     2    10 2   
     7     3     4 1   
     8     3    59 1   
     9     4     5 2   
    10     5     6 ar  
    11     5    10 ar  
    12     6     7 ar  
    13     6    39 1   
    14     7     8 ar  
    15     7    40 1   
    16     8     9 ar  
    17     8    11 1   
    18     9    10 ar  
    19     9    41 1   
    20    11    12 ar  
    21    11    30 ar  
    22    12    13 ar  
    23    12    42 1   
    24    13    14 1   
    25    13    28 ar  
    26    14    15 1   
    27    15    16 1   
    28    15    43 1   
    29    15    44 1   
    30    16    17 1   
    31    16    18 1   
    32    16    45 1   
    33    17    46 1   
    34    17    47 1   
    35    18    19 1   
    36    18    48 1   
    37    18    49 1   
    38    19    20 2   
    39    19    27 1   
    40    20    21 1   
    41    20    50 1   
    42    21    22 1   
    43    21    60 1   
    44    22    23 ar  
    45    22    27 ar  
    46    23    24 ar  
    47    23    51 1   
    48    24    25 ar  
    49    24    52 1   
    50    25    26 ar  
    51    25    53 1   
    52    26    27 ar  
    53    26    54 1   
    54    28    29 ar  
    55    28    55 1   
    56    29    30 ar  
    57    30    31 1   
    58    31    32 1   
    59    31    35 2   
    60    32    33 2   
    61    32    56 1   
    62    33    34 1   
    63    33    57 1   
    64    34    35 1   
    65    35    58 1   
@<TRIPOS>SUBSTRUCTURE
     1 B99         1 TEMP              0 ****  ****    0 ROOT
