@<TRIPOS>MOLECULE
B99
   60    65     1     0     0
SMALL
No Charge or Current Charge


@<TRIPOS>ATOM
      1 C1           4.4540     4.5460    -1.1650 c3         1 B99      -0.033900
      2 C2           5.2090     3.6350    -0.2350 cc         1 B99      -0.085300
      3 N1           6.4170     3.9400     0.3820 na         1 B99       0.013500
      4 N2           6.8760     2.8900     1.1920 nc         1 B99      -0.282400
      5 C3           5.8750     1.9270     1.0290 ca         1 B99      -0.061000
      6 C4           5.8250     0.6590     1.6250 ca         1 B99      -0.087000
      7 C5           4.7280    -0.1840     1.3420 ca         1 B99      -0.083000
      8 C6           3.6850     0.2260     0.4610 cp         1 B99      -0.068000
      9 C7           3.7600     1.5200    -0.1160 ca         1 B99      -0.039000
     10 C8           4.8640     2.3260     0.1900 ca         1 B99      -0.155000
     11 C9           2.5240    -0.6700     0.1710 cp         1 B99      -0.039000
     12 C10          1.2130    -0.1640     0.3470 ca         1 B99      -0.108000
     13 C11          0.1090    -0.9990     0.1360 ca         1 B99       0.092100
     14 O1          -1.1590    -0.4800     0.3250 os         1 B99      -0.317100
     15 C12         -2.3430    -1.2800     0.1330 c3         1 B99       0.167600
     16 C13         -3.6010    -0.4070     0.4270 c3         1 B99       0.162500
     17 N3          -3.7330     0.7540    -0.4930 n8         1 B99      -0.983200
     18 C14         -4.9000    -1.2530     0.4090 c3         1 B99      -0.040200
     19 C15         -6.1430    -0.4690     0.7590 cc         1 B99      -0.154400
     20 C16         -6.6700    -0.2590     2.0300 cd         1 B99      -0.148100
     21 N4          -7.8290     0.5510     1.9390 na         1 B99      -0.220700
     22 C17         -7.9980     0.8220     0.5940 ca         1 B99      -0.046200
     23 C18         -9.0120     1.5800    -0.0070 ca         1 B99      -0.125000
     24 C19         -8.9970     1.7190    -1.4110 ca         1 B99      -0.091000
     25 C20         -7.9820     1.1000    -2.1780 ca         1 B99      -0.135000
     26 C21         -6.9740     0.3400    -1.5450 ca         1 B99      -0.070000
     27 C22         -7.0140     0.2290    -0.1470 ca         1 B99      -0.101800
     28 C23          0.3510    -2.3370    -0.2520 ca         1 B99       0.257900
     29 N5           1.5920    -2.8420    -0.4390 nb         1 B99      -0.647000
     30 C24          2.6670    -2.0390    -0.2310 ca         1 B99       0.413500
     31 C25          3.9410    -2.6810    -0.5740 cc         1 B99      -0.221500
     32 C26          4.3110    -4.0430    -0.5720 cc         1 B99      -0.150000
     33 C27          5.5630    -4.1060    -1.1170 cd         1 B99       0.098900
     34 O2           6.0090    -2.8590    -1.4950 os         1 B99      -0.238000
     35 C28          4.9710    -2.0090    -1.1810 cd         1 B99       0.150900
     36 H1           4.3430     4.0860    -2.1540 hc         1 B99       0.054367
     37 H1A          3.4500     4.7530    -0.7750 hc         1 B99       0.054367
     38 H1B          4.9690     5.5050    -1.2950 hc         1 B99       0.054367
     39 H4           6.6150     0.3310     2.2960 ha         1 B99       0.129000
     40 H5           4.6830    -1.1650     1.8090 ha         1 B99       0.121000
     41 H7           2.9840     1.8770    -0.7890 ha         1 B99       0.120000
     42 H10          1.0580     0.8640     0.6640 ha         1 B99       0.137000
     43 H12         -2.3920    -1.6610    -0.8950 h1         1 B99       0.034200
     44 H12A        -2.3330    -2.1380     0.8180 h1         1 B99       0.034200
     45 H13         -3.4960    -0.0100     1.4480 h1         1 B99       0.072700
     46 HN3         -3.6820     0.4200    -1.4600 hn         1 B99       0.399500
     47 HN3A        -4.6990     1.0940    -0.4110 hn         1 B99       0.399500
     48 H14         -5.0200    -1.7170    -0.5780 hc         1 B99       0.048700
     49 H14A        -4.7910    -2.0810     1.1190 hc         1 B99       0.048700
     50 H16         -6.3010    -0.6180     2.9880 h4         1 B99       0.214000
     51 H18         -9.7910     2.0490     0.5910 ha         1 B99       0.114000
     52 H19         -9.7710     2.3020    -1.9060 ha         1 B99       0.112000
     53 H20         -7.9790     1.2070    -3.2600 ha         1 B99       0.113000
     54 H21         -6.1950    -0.1450    -2.1290 ha         1 B99       0.111000
     55 H23         -0.4670    -3.0340    -0.4300 h4         1 B99       0.019100
     56 H26          3.7070    -4.8720    -0.2170 ha         1 B99       0.152000
     57 H27          6.2130    -4.9510    -1.3040 h4         1 B99       0.050100
     58 H28          5.0820    -0.9690    -1.4610 h4         1 B99       0.061100
     59 HN1          6.9450     4.8030     0.2930 hn         1 B99       0.368000
     60 HN4         -8.4170     0.8670     2.7040 hn         1 B99       0.352000
@<TRIPOS>BOND
     1     1     2 1   
     2     1    36 1   
     3     1    37 1   
     4     1    38 1   
     5     2     3 1   
     6     2    10 2   
     7     3     4 1   
     8     3    59 1   
     9     4     5 2   
    10     5     6 ar  
    11     5    10 ar  
    12     6     7 ar  
    13     6    39 1   
    14     7     8 ar  
    15     7    40 1   
    16     8     9 ar  
    17     8    11 1   
    18     9    10 ar  
    19     9    41 1   
    20    11    12 ar  
    21    11    30 ar  
    22    12    13 ar  
    23    12    42 1   
    24    13    14 1   
    25    13    28 ar  
    26    14    15 1   
    27    15    16 1   
    28    15    43 1   
    29    15    44 1   
    30    16    17 1   
    31    16    18 1   
    32    16    45 1   
    33    17    46 1   
    34    17    47 1   
    35    18    19 1   
    36    18    48 1   
    37    18    49 1   
    38    19    20 2   
    39    19    27 1   
    40    20    21 1   
    41    20    50 1   
    42    21    22 1   
    43    21    60 1   
    44    22    23 ar  
    45    22    27 ar  
    46    23    24 ar  
    47    23    51 1   
    48    24    25 ar  
    49    24    52 1   
    50    25    26 ar  
    51    25    53 1   
    52    26    27 ar  
    53    26    54 1   
    54    28    29 ar  
    55    28    55 1   
    56    29    30 ar  
    57    30    31 1   
    58    31    32 1   
    59    31    35 2   
    60    32    33 2   
    61    32    56 1   
    62    33    34 1   
    63    33    57 1   
    64    34    35 1   
    65    35    58 1   
@<TRIPOS>SUBSTRUCTURE
     1 B99         1 TEMP              0 ****  ****    0 ROOT
