@<TRIPOS>MOLECULE
B9C
   61    65     1     0     0
SMALL
abcg2


@<TRIPOS>ATOM
      1 CAA         -5.0550     2.9780    -0.4700 c6         1 B9C       0.218300
      2 CAB         -6.0360     4.0030     0.0660 c6         1 B9C       0.143300
      3 NAC         -7.3060     3.8690    -0.6180 n7         1 B9C      -0.857400
      4 CAD         -7.8620     2.5560    -0.3660 c6         1 B9C       0.143300
      5 CAE         -6.9330     1.4820    -0.9070 c6         1 B9C       0.218300
      6 NAF         -5.5990     1.6330    -0.3570 nh         1 B9C      -0.775300
      7 CAI         -4.7510     0.5660    -0.2450 ca         1 B9C       0.627900
      8 CAH         -5.1640    -0.7670    -0.4690 ca         1 B9C      -0.237000
      9 CAG         -4.2600    -1.7850    -0.2850 ca         1 B9C      -0.011000
     10 NAJ         -3.4940     0.8240     0.1170 nb         1 B9C      -0.759000
     11 CAK         -2.6390    -0.1720     0.2890 ca         1 B9C       0.404900
     12 CAV         -2.9440    -1.5140     0.1060 ca         1 B9C      -0.208900
     13 CAZ         -1.9660    -2.5740     0.3280 cc         1 B9C       0.413500
     14 CBE         -0.5480    -2.5490     0.1350 ca         1 B9C      -0.177900
     15 CBD          0.3860    -1.6140    -0.3240 ca         1 B9C      -0.113000
     16 NBA         -2.3410    -3.7620     0.7530 nd         1 B9C      -0.511100
     17 NBB         -1.2510    -4.5140     0.8510 na         1 B9C      -0.055400
     18 CBF         -0.1290    -3.8380     0.4980 ca         1 B9C      -0.070200
     19 CBG          1.2140    -4.2130     0.4340 ca         1 B9C      -0.092000
     20 CBH          2.1200    -3.2760    -0.0060 ca         1 B9C      -0.123000
     21 CBC          1.7260    -1.9680    -0.3900 ca         1 B9C       0.251000
     22 NAY          2.6550    -1.0180    -0.7920 nu         1 B9C      -0.962200
     23 CAX          4.0050    -1.3680    -1.1720 c3         1 B9C       0.246100
     24 CAW          4.7920    -0.1080    -1.4180 ca         1 B9C      -0.139300
     25 CAU          5.2030     0.2060    -2.7080 ca         1 B9C      -0.087000
     26 CAT          5.8980     1.3750    -2.9830 ca         1 B9C      -0.120000
     27 CAS          6.2060     2.2410    -1.9460 ca         1 B9C      -0.083000
     28 CAR          5.8280     1.9390    -0.6460 ca         1 B9C      -0.117000
     29 CAQ          5.1060     0.7790    -0.3780 ca         1 B9C       0.285000
     30 NAP          4.7540     0.4610     0.9550 nu         1 B9C      -0.880100
     31 SAO          3.8050     1.4460     1.9030 s6         1 B9C       1.199100
     32 OAL          3.6210     0.7050     3.1390 o          1 B9C      -0.531000
     33 OAM          4.4190     2.7630     1.9410 o          1 B9C      -0.531000
     34 CAN          2.2300     1.6080     1.0950 c3         1 B9C      -0.374100
     35 H1          -4.8280     3.2060    -1.5200 h1         1 B9C       0.054700
     36 H2          -4.1260     3.0350     0.0890 h1         1 B9C       0.054700
     37 H3          -6.1250     3.8730     1.1570 h1         1 B9C       0.040450
     38 H4          -5.6280     5.0000    -0.1120 h1         1 B9C       0.040450
     39 H5          -7.9490     4.5770    -0.2890 hn         1 B9C       0.414000
     40 H7          -8.0270     2.3640     0.7060 h1         1 B9C       0.040450
     41 H8          -8.8270     2.4620    -0.8670 h1         1 B9C       0.040450
     42 H9          -7.3490     0.5170    -0.6270 h1         1 B9C       0.054700
     43 H10         -6.9100     1.5300    -2.0040 h1         1 B9C       0.054700
     44 H11         -6.1630    -1.0110    -0.7960 ha         1 B9C       0.122000
     45 H12         -4.5710    -2.8070    -0.4640 ha         1 B9C       0.125000
     46 H13         -1.6470     0.1230     0.6140 h4         1 B9C       0.015100
     47 H14          0.0750    -0.6250    -0.6410 ha         1 B9C       0.120000
     48 H16          1.5400    -5.2070     0.7120 ha         1 B9C       0.121000
     49 H17          3.1600    -3.5670    -0.0650 ha         1 B9C       0.114000
     50 H18          2.2610    -0.3030    -1.3840 hn         1 B9C       0.460000
     51 H19          4.4710    -1.9500    -0.3700 h1         1 B9C       0.046200
     52 H20          4.0490    -2.0050    -2.0630 h1         1 B9C       0.046200
     53 H21          4.9630    -0.4790    -3.5120 ha         1 B9C       0.114000
     54 H22          6.1990     1.6020    -3.9970 ha         1 B9C       0.120000
     55 H23          6.7600     3.1500    -2.1400 ha         1 B9C       0.123000
     56 H24          6.1100     2.5990     0.1600 ha         1 B9C       0.152000
     57 H25          4.5250    -0.5120     1.1210 hn         1 B9C       0.499000
     58 H26          1.7510     0.6340     1.0450 h1         1 B9C       0.105033
     59 H27          1.6330     2.2960     1.6920 h1         1 B9C       0.105033
     60 H28          2.3700     2.0140     0.0960 h1         1 B9C       0.105033
     61 H6          -1.3260    -5.4610     1.1830 hn         1 B9C       0.378000
@<TRIPOS>BOND
     1     1     2 1   
     2     1     6 1   
     3     1    35 1   
     4     1    36 1   
     5     2     3 1   
     6     2    37 1   
     7     2    38 1   
     8     3     4 1   
     9     3    39 1   
    10     4     5 1   
    11     4    40 1   
    12     4    41 1   
    13     5     6 1   
    14     5    42 1   
    15     5    43 1   
    16     6     7 1   
    17     7     8 ar  
    18     7    10 ar  
    19     8     9 ar  
    20     8    44 1   
    21     9    12 ar  
    22     9    45 1   
    23    10    11 ar  
    24    11    12 ar  
    25    11    46 1   
    26    12    13 1   
    27    13    14 1   
    28    13    16 2   
    29    14    15 ar  
    30    14    18 ar  
    31    15    21 ar  
    32    15    47 1   
    33    16    17 1   
    34    17    18 1   
    35    17    61 1   
    36    18    19 ar  
    37    19    20 ar  
    38    19    48 1   
    39    20    21 ar  
    40    20    49 1   
    41    21    22 1   
    42    22    23 1   
    43    22    50 1   
    44    23    24 1   
    45    23    51 1   
    46    23    52 1   
    47    24    25 ar  
    48    24    29 ar  
    49    25    26 ar  
    50    25    53 1   
    51    26    27 ar  
    52    26    54 1   
    53    27    28 ar  
    54    27    55 1   
    55    28    29 ar  
    56    28    56 1   
    57    29    30 1   
    58    30    31 1   
    59    30    57 1   
    60    31    32 2   
    61    31    33 2   
    62    31    34 1   
    63    34    58 1   
    64    34    59 1   
    65    34    60 1   
@<TRIPOS>SUBSTRUCTURE
     1 B9C         1 TEMP              0 ****  ****    0 ROOT
