@<TRIPOS>MOLECULE
B9C
   61    65     1     0     0
SMALL
No Charge or Current Charge


@<TRIPOS>ATOM
      1 CAA         -5.1180     2.7690    -1.0280 c6         1 B9C       0.218300
      2 CAB         -5.9990     4.0180    -0.6880 c6         1 B9C       0.143300
      3 NAC         -7.4420     3.8220    -1.0050 n7         1 B9C      -0.857400
      4 CAD         -7.9630     2.5970    -0.3370 c6         1 B9C       0.143300
      5 CAE         -7.1300     1.3130    -0.6690 c6         1 B9C       0.218300
      6 NAF         -5.6570     1.4930    -0.4410 nh         1 B9C      -0.775300
      7 CAI         -4.8160     0.3800    -0.2560 ca         1 B9C       0.627900
      8 CAH         -5.2170    -0.9400    -0.5340 ca         1 B9C      -0.237000
      9 CAG         -4.3180    -1.9930    -0.3130 ca         1 B9C      -0.011000
     10 NAJ         -3.6000     0.6740     0.2320 nb         1 B9C      -0.759000
     11 CAK         -2.7350    -0.3420     0.4420 ca         1 B9C       0.404900
     12 CAV         -3.0310    -1.6850     0.1590 ca         1 B9C      -0.208900
     13 CAZ         -2.0670    -2.7370     0.4650 cc         1 B9C       0.413500
     14 CBE         -0.6290    -2.6270     0.3170 ca         1 B9C      -0.177900
     15 CBD          0.2160    -1.6280    -0.1990 ca         1 B9C      -0.113000
     16 NBA         -2.4330    -3.9480     0.9140 nd         1 B9C      -0.511100
     17 NBB         -1.2110    -4.6100     1.0940 na         1 B9C      -0.055400
     18 CBF         -0.1370    -3.8250     0.7340 ca         1 B9C      -0.070200
     19 CBG          1.2310    -4.1180     0.7210 ca         1 B9C      -0.092000
     20 CBH          2.1080    -3.1200     0.2410 ca         1 B9C      -0.123000
     21 CBC          1.6040    -1.8820    -0.2310 ca         1 B9C       0.251000
     22 NAY          2.4630    -0.8940    -0.7200 nu         1 B9C      -0.962200
     23 CAX          3.6260    -1.1390    -1.5930 c3         1 B9C       0.246100
     24 CAW          4.5190     0.0990    -1.6660 ca         1 B9C      -0.139300
     25 CAU          4.8150     0.6640    -2.9240 ca         1 B9C      -0.087000
     26 CAT          5.6680     1.7750    -3.0210 ca         1 B9C      -0.120000
     27 CAS          6.2400     2.3240    -1.8640 ca         1 B9C      -0.083000
     28 CAR          5.9500     1.7670    -0.6060 ca         1 B9C      -0.117000
     29 CAQ          5.0830     0.6620    -0.4970 ca         1 B9C       0.285000
     30 NAP          4.7440     0.0960     0.7270 nu         1 B9C      -0.880100
     31 SAO          4.4100     0.8790     2.1480 s6         1 B9C       1.199100
     32 OAL          3.7890    -0.1370     2.9980 o          1 B9C      -0.531000
     33 OAM          5.6420     1.5490     2.5680 o          1 B9C      -0.531000
     34 CAN          3.1820     2.0930     1.7210 c3         1 B9C      -0.374100
     35 H1          -5.0600     2.6720    -2.1220 h1         1 B9C       0.054700
     36 H2          -4.1000     2.9790    -0.6720 h1         1 B9C       0.054700
     37 H3          -5.8950     4.2370     0.3860 h1         1 B9C       0.040450
     38 H4          -5.6170     4.8920    -1.2360 h1         1 B9C       0.040450
     39 H5          -7.9740     4.6380    -0.6750 hn         1 B9C       0.414000
     40 H7          -7.9500     2.7500     0.7520 h1         1 B9C       0.040450
     41 H8          -9.0110     2.4350    -0.6300 h1         1 B9C       0.040450
     42 H9          -7.5180     0.4960    -0.0430 h1         1 B9C       0.054700
     43 H10         -7.3110     1.0370    -1.7180 h1         1 B9C       0.054700
     44 H11         -6.2050    -1.1570    -0.9230 ha         1 B9C       0.122000
     45 H12         -4.6120    -3.0220    -0.5180 ha         1 B9C       0.125000
     46 H13         -1.7770    -0.0590     0.8760 h4         1 B9C       0.015100
     47 H14         -0.1790    -0.6910    -0.5800 ha         1 B9C       0.120000
     48 H16          1.6080    -5.0800     1.0630 ha         1 B9C       0.121000
     49 H17          3.1750    -3.3170     0.2310 ha         1 B9C       0.114000
     50 H18          1.9820    -0.0170    -0.9280 hn         1 B9C       0.460000
     51 H19          4.2300    -1.9700    -1.2070 h1         1 B9C       0.046200
     52 H20          3.2840    -1.4240    -2.5980 h1         1 B9C       0.046200
     53 H21          4.3880     0.2380    -3.8300 ha         1 B9C       0.114000
     54 H22          5.8930     2.2040    -3.9950 ha         1 B9C       0.120000
     55 H23          6.9090     3.1790    -1.9400 ha         1 B9C       0.123000
     56 H24          6.4110     2.2000     0.2750 ha         1 B9C       0.152000
     57 H25          3.9330    -0.5140     0.6240 hn         1 B9C       0.499000
     58 H26          2.3200     1.5620     1.3060 h1         1 B9C       0.105033
     59 H27          2.9150     2.6240     2.6400 h1         1 B9C       0.105033
     60 H28          3.6250     2.7720     0.9860 h1         1 B9C       0.105033
     61 H6          -1.1690    -5.5680     1.4390 hn         1 B9C       0.378000
@<TRIPOS>BOND
     1     1     2 1   
     2     1     6 1   
     3     1    35 1   
     4     1    36 1   
     5     2     3 1   
     6     2    37 1   
     7     2    38 1   
     8     3     4 1   
     9     3    39 1   
    10     4     5 1   
    11     4    40 1   
    12     4    41 1   
    13     5     6 1   
    14     5    42 1   
    15     5    43 1   
    16     6     7 1   
    17     7     8 ar  
    18     7    10 ar  
    19     8     9 ar  
    20     8    44 1   
    21     9    12 ar  
    22     9    45 1   
    23    10    11 ar  
    24    11    12 ar  
    25    11    46 1   
    26    12    13 1   
    27    13    14 1   
    28    13    16 2   
    29    14    15 ar  
    30    14    18 ar  
    31    15    21 ar  
    32    15    47 1   
    33    16    17 1   
    34    17    18 1   
    35    17    61 1   
    36    18    19 ar  
    37    19    20 ar  
    38    19    48 1   
    39    20    21 ar  
    40    20    49 1   
    41    21    22 1   
    42    22    23 1   
    43    22    50 1   
    44    23    24 1   
    45    23    51 1   
    46    23    52 1   
    47    24    25 ar  
    48    24    29 ar  
    49    25    26 ar  
    50    25    53 1   
    51    26    27 ar  
    52    26    54 1   
    53    27    28 ar  
    54    27    55 1   
    55    28    29 ar  
    56    28    56 1   
    57    29    30 1   
    58    30    31 1   
    59    30    57 1   
    60    31    32 2   
    61    31    33 2   
    62    31    34 1   
    63    34    58 1   
    64    34    59 1   
    65    34    60 1   
@<TRIPOS>SUBSTRUCTURE
     1 B9C         1 TEMP              0 ****  ****    0 ROOT
