@<TRIPOS>MOLECULE
B9D
   24    24     1     0     0
SMALL
abcg2


@<TRIPOS>ATOM
      1 O1          12.5010    17.5840    46.3060 oh         1 B9D      -0.680000
      2 O5          13.0260    16.3700    44.4860 os         1 B9D      -0.523000
      3 C5          12.1250    17.3430    45.0050 c6         1 B9D       0.425300
      4 F1          14.1830    15.3670    42.9340 f          1 B9D      -0.250000
      5 C4          12.2350    18.6390    44.2160 c6         1 B9D       0.150300
      6 O4          11.2630    19.5200    44.7150 oh         1 B9D      -0.705000
      7 C3          12.0400    18.3620    42.7330 c6         1 B9D       0.136300
      8 O3          12.2380    19.5810    42.0560 oh         1 B9D      -0.726000
      9 C2          13.0420    17.3120    42.2690 c6         1 B9D       0.099300
     10 O2          12.8010    17.0450    40.9140 oh         1 B9D      -0.713000
     11 C1          12.9920    16.0450    43.1380 c6         1 B9D       0.431000
     12 C6          11.9190    15.0190    42.7880 c3         1 B9D       0.122600
     13 O6          10.6480    15.5950    42.9360 oh         1 B9D      -0.724000
     14 HO1         12.1370    16.9010    46.8790 ho         1 B9D       0.521000
     15 H5          11.0980    16.9620    44.9470 h2         1 B9D       0.055700
     16 H4          13.2530    19.0380    44.3620 h1         1 B9D       0.066700
     17 HO4         11.2680    20.3090    44.1630 ho         1 B9D       0.523000
     18 H3          11.0190    17.9940    42.5720 h1         1 B9D       0.075700
     19 HO3         11.9110    19.4880    41.1570 ho         1 B9D       0.524000
     20 H2          14.0470    17.7380    42.4130 h1         1 B9D       0.066700
     21 HO2         13.5990    16.6850    40.5150 ho         1 B9D       0.517000
     22 H6          12.0920    14.6640    41.7660 h1         1 B9D       0.045700
     23 H6A         12.0600    14.1610    43.4590 h1         1 B9D       0.045700
     24 HO6          9.9860    14.9200    42.7580 ho         1 B9D       0.515000
@<TRIPOS>BOND
     1     1     3 1   
     2     1    14 1   
     3     2     3 1   
     4     2    11 1   
     5     3     5 1   
     6     3    15 1   
     7     4    11 1   
     8     5     6 1   
     9     5     7 1   
    10     5    16 1   
    11     6    17 1   
    12     7     8 1   
    13     7     9 1   
    14     7    18 1   
    15     8    19 1   
    16     9    10 1   
    17     9    11 1   
    18     9    20 1   
    19    10    21 1   
    20    11    12 1   
    21    12    13 1   
    22    12    22 1   
    23    12    23 1   
    24    13    24 1   
@<TRIPOS>SUBSTRUCTURE
     1 B9D         1 TEMP              0 ****  ****    0 ROOT
