@<TRIPOS>MOLECULE
B9D
   24    24     1     0     0
SMALL
No Charge or Current Charge


@<TRIPOS>ATOM
      1 O1          12.3640    17.4590    46.4140 oh         1 B9D      -0.680000
      2 O5          13.0310    16.3870    44.5820 os         1 B9D      -0.523000
      3 C5          12.0330    17.3050    45.0490 c6         1 B9D       0.425300
      4 F1          14.1530    15.3190    42.9100 f          1 B9D      -0.250000
      5 C4          12.1260    18.6700    44.2700 c6         1 B9D       0.150300
      6 O4          11.1250    19.6380    44.6640 oh         1 B9D      -0.705000
      7 C3          12.0060    18.3990    42.7430 c6         1 B9D       0.136300
      8 O3          12.1530    19.6230    41.9960 oh         1 B9D      -0.726000
      9 C2          13.0900    17.3760    42.2990 c6         1 B9D       0.099300
     10 O2          13.0100    17.1560    40.8640 oh         1 B9D      -0.713000
     11 C1          12.9830    16.0610    43.1650 c6         1 B9D       0.431000
     12 C6          11.7760    15.0890    42.8220 c3         1 B9D       0.122600
     13 O6          10.4400    15.5690    43.1050 oh         1 B9D      -0.724000
     14 HO1         13.0630    16.7800    46.5300 ho         1 B9D       0.521000
     15 H5          11.0250    16.8780    44.9620 h2         1 B9D       0.055700
     16 H4          13.1280    19.0850    44.4580 h1         1 B9D       0.066700
     17 HO4         11.0960    20.2780    43.9120 ho         1 B9D       0.523000
     18 H3          11.0150    17.9650    42.5430 h1         1 B9D       0.075700
     19 HO3         12.3900    19.3270    41.0820 ho         1 B9D       0.524000
     20 H2          14.0670    17.8230    42.5380 h1         1 B9D       0.066700
     21 HO2         13.7920    16.6110    40.6050 ho         1 B9D       0.517000
     22 H6          11.8560    14.8310    41.7570 h1         1 B9D       0.045700
     23 H6A         11.9520    14.1580    43.3770 h1         1 B9D       0.045700
     24 HO6          9.8090    14.8560    42.8400 ho         1 B9D       0.515000
@<TRIPOS>BOND
     1     1     3 1   
     2     1    14 1   
     3     2     3 1   
     4     2    11 1   
     5     3     5 1   
     6     3    15 1   
     7     4    11 1   
     8     5     6 1   
     9     5     7 1   
    10     5    16 1   
    11     6    17 1   
    12     7     8 1   
    13     7     9 1   
    14     7    18 1   
    15     8    19 1   
    16     9    10 1   
    17     9    11 1   
    18     9    20 1   
    19    10    21 1   
    20    11    12 1   
    21    12    13 1   
    22    12    22 1   
    23    12    23 1   
    24    13    24 1   
@<TRIPOS>SUBSTRUCTURE
     1 B9D         1 TEMP              0 ****  ****    0 ROOT
