@<TRIPOS>MOLECULE
B9I
   56    61     1     0     0
SMALL
No Charge or Current Charge


@<TRIPOS>ATOM
      1 C2           9.6240   -19.3200    35.3040 c5         1 B9I       0.364900
      2 C4           8.0900   -18.2190    33.5970 ca         1 B9I       0.209100
      3 C5          10.3330   -17.3630    33.8380 ca         1 B9I       0.177100
      4 C6          10.6580   -18.3090    34.8270 ca         1 B9I      -0.211300
      5 C8          12.9090   -17.3590    34.9470 ca         1 B9I      -0.185000
      6 O8          14.8010   -11.2170    34.2260 oh         1 B9I      -0.780000
      7 O2          10.1610   -20.6620    35.0720 os         1 B9I      -0.424100
      8 O4          13.4620   -15.4770    33.4640 os         1 B9I      -0.373100
      9 C7          11.9560   -18.2960    35.3790 ca         1 B9I      -0.019000
     10 C1          10.2870   -21.3320    36.2690 c          1 B9I       0.673700
     11 C10         14.8350   -15.4460    33.9020 c6         1 B9I       0.372300
     12 C11         15.7270   -14.6830    32.8530 c6         1 B9I       0.144300
     13 C12         15.9210   -13.1880    33.2650 c6         1 B9I       0.172300
     14 C13         14.6680   -12.6370    33.9910 c6         1 B9I       0.135300
     15 C14         14.4800   -13.4240    35.3250 c6         1 B9I      -0.014700
     16 C15         13.0460   -13.2060    35.9220 c          1 B9I       0.716000
     17 C16         11.2840   -16.4280    33.4060 ca         1 B9I      -0.173000
     18 C17          6.8600   -18.1130    32.9310 ca         1 B9I      -0.185000
     19 C18          5.8200   -18.9960    33.2340 ca         1 B9I       0.175100
     20 C25          6.0040   -19.9890    34.2040 ca         1 B9I      -0.247000
     21 C26          7.2350   -20.0970    34.8730 ca         1 B9I      -0.010000
     22 C27          9.4390   -19.2580    36.8050 ca         1 B9I      -0.080300
     23 C28          9.8310   -20.4470    37.3620 ca         1 B9I      -0.202600
     24 C29          9.7710   -20.6800    38.7440 ca         1 B9I      -0.045000
     25 C3           8.2930   -19.2110    34.5740 ca         1 B9I      -0.195300
     26 C30          9.2880   -19.6410    39.5660 ca         1 B9I      -0.127000
     27 C31          8.8810   -18.4110    38.9970 ca         1 B9I      -0.086000
     28 C32          8.9550   -18.2100    37.6020 ca         1 B9I      -0.066000
     29 C9          12.5730   -16.4150    33.9530 ca         1 B9I       0.240100
     30 O1          10.7070   -22.4730    36.3940 o          1 B9I      -0.505000
     31 O10         17.0350   -15.2850    32.6850 oh         1 B9I      -0.708000
     32 O11          4.6290   -18.8890    32.5850 oh         1 B9I      -0.531100
     33 O3           9.0850   -17.3300    33.2690 os         1 B9I      -0.219200
     34 O5          12.3250   -14.1830    36.0600 o          1 B9I      -0.710000
     35 O7          14.9290   -14.8280    35.2180 os         1 B9I      -0.437000
     36 O9          16.2430   -12.3670    32.1310 oh         1 B9I      -0.671000
     37 H1          13.8920   -17.3740    35.4050 ha         1 B9I       0.136000
     38 H3          12.2300   -19.0120    36.1510 ha         1 B9I       0.110000
     39 H4          15.2100   -16.4790    33.9540 h2         1 B9I       0.055700
     40 H5          15.1870   -14.7060    31.8940 h1         1 B9I       0.061700
     41 H6          16.7500   -13.1410    33.9880 h1         1 B9I       0.049700
     42 H7          13.7890   -12.8230    33.3530 h1         1 B9I       0.053700
     43 H8          15.1560   -12.9650    36.0610 h1         1 B9I       0.059700
     44 H9          11.0200   -15.7060    32.6390 ha         1 B9I       0.143000
     45 H10          6.7170   -17.3420    32.1790 ha         1 B9I       0.147000
     46 H11          5.2010   -20.6800    34.4470 ha         1 B9I       0.111000
     47 H12          7.3650   -20.8720    35.6270 ha         1 B9I       0.117000
     48 H13         10.0880   -21.6310    39.1690 ha         1 B9I       0.127000
     49 H14          9.2270   -19.7870    40.6420 ha         1 B9I       0.112000
     50 H15          8.5100   -17.6140    39.6390 ha         1 B9I       0.118000
     51 H16          8.6460   -17.2680    37.1560 ha         1 B9I       0.144000
     52 H17         17.5380   -14.6750    32.0950 ho         1 B9I       0.493000
     53 H18          4.0320   -19.5870    32.9280 ho         1 B9I       0.463000
     54 H20         15.9490   -11.4680    32.4130 ho         1 B9I       0.458000
     55 O6          12.9610   -12.2750    36.7120 o          1 B9I      -0.710000
     56 H2          14.1550   -10.9730    34.9370 ho         1 B9I       0.576000
@<TRIPOS>BOND
     1     1     4 1   
     2     1     7 1   
     3     1    22 1   
     4     1    25 1   
     5     2    18 ar  
     6     2    25 ar  
     7     2    33 1   
     8     3     4 ar  
     9     3    17 ar  
    10     3    33 1   
    11     4     9 ar  
    12     5     9 ar  
    13     5    29 ar  
    14     5    37 1   
    15     6    14 1   
    16     6    56 1   
    17     7    10 1   
    18     8    11 1   
    19     8    29 1   
    20     9    38 1   
    21    10    23 1   
    22    10    30 2   
    23    11    12 1   
    24    11    35 1   
    25    11    39 1   
    26    12    13 1   
    27    12    31 1   
    28    12    40 1   
    29    13    14 1   
    30    13    36 1   
    31    13    41 1   
    32    14    15 1   
    33    14    42 1   
    34    15    16 1   
    35    15    35 1   
    36    15    43 1   
    37    16    34 1   
    38    16    55 1   
    39    17    29 ar  
    40    17    44 1   
    41    18    19 ar  
    42    18    45 1   
    43    19    20 ar  
    44    19    32 1   
    45    20    21 ar  
    46    20    46 1   
    47    21    25 ar  
    48    21    47 1   
    49    22    23 ar  
    50    22    28 ar  
    51    23    24 ar  
    52    24    26 ar  
    53    24    48 1   
    54    26    27 ar  
    55    26    49 1   
    56    27    28 ar  
    57    27    50 1   
    58    28    51 1   
    59    31    52 1   
    60    32    53 1   
    61    36    54 1   
@<TRIPOS>SUBSTRUCTURE
     1 B9I         1 TEMP              0 ****  ****    0 ROOT
