@<TRIPOS>MOLECULE
B9I
   56    61     1     0     0
SMALL
bcc


@<TRIPOS>ATOM
      1 C2           9.6730   -19.2640    35.3230 c5         1 B9I       0.341700
      2 C4           8.2390   -18.1350    33.5870 ca         1 B9I       0.209100
      3 C5          10.4310   -17.3570    33.8610 ca         1 B9I       0.177100
      4 C6          10.6840   -18.2370    34.9050 ca         1 B9I      -0.211300
      5 C8          12.8940   -17.2490    35.1260 ca         1 B9I      -0.203000
      6 O8          14.5190   -11.2770    33.9920 oh         1 B9I      -0.657800
      7 O2          10.1890   -20.5850    34.9770 os         1 B9I      -0.400900
      8 O4          13.4850   -15.4890    33.5530 os         1 B9I      -0.349900
      9 C7          11.9310   -18.1550    35.5210 ca         1 B9I      -0.037000
     10 C1          10.3480   -21.3670    36.0560 c          1 B9I       0.749200
     11 C10         14.7820   -15.3480    34.1060 c6         1 B9I       0.325900
     12 C11         15.6600   -14.6800    33.0230 c6         1 B9I       0.121100
     13 C12         15.7610   -13.1750    33.2380 c6         1 B9I       0.149100
     14 C13         14.4790   -12.6730    33.8760 c6         1 B9I       0.112100
     15 C14         14.3590   -13.3060    35.2720 c6         1 B9I      -0.037900
     16 C15         12.9600   -13.0360    35.8610 c          1 B9I       0.926600
     17 C16         11.3810   -16.4390    33.4370 ca         1 B9I      -0.191000
     18 C17          7.0460   -17.9690    32.8940 ca         1 B9I      -0.203000
     19 C18          5.9500   -18.7490    33.2270 ca         1 B9I       0.175100
     20 C25          6.0530   -19.6890    34.2580 ca         1 B9I      -0.265000
     21 C26          7.2470   -19.8290    34.9310 ca         1 B9I      -0.028000
     22 C27          9.5200   -19.3570    36.8190 ca         1 B9I      -0.080300
     23 C28          9.9270   -20.6040    37.2390 ca         1 B9I      -0.202600
     24 C29          9.9000   -20.9780    38.5740 ca         1 B9I      -0.063000
     25 C3           8.3680   -19.0610    34.6130 ca         1 B9I      -0.195300
     26 C30          9.4430   -20.0410    39.4860 ca         1 B9I      -0.145000
     27 C31          9.0280   -18.7760    39.0610 ca         1 B9I      -0.104000
     28 C32          9.0610   -18.4150    37.7210 ca         1 B9I      -0.084000
     29 C9          12.6190   -16.3860    34.0610 ca         1 B9I       0.240100
     30 O1          10.7690   -22.4890    35.9810 o          1 B9I      -0.580500
     31 O10         16.9650   -15.2040    33.0460 oh         1 B9I      -0.585800
     32 O11          4.8180   -18.5560    32.5340 oh         1 B9I      -0.492100
     33 O3           9.2520   -17.3280    33.1980 os         1 B9I      -0.219200
     34 O5          12.3390   -13.9470    36.4110 o          1 B9I      -0.815300
     35 O7          14.7500   -14.6730    35.3070 os         1 B9I      -0.390600
     36 O9          16.0280   -12.5730    31.9950 oh         1 B9I      -0.608800
     37 H1          13.8290   -17.2230    35.6650 ha         1 B9I       0.154000
     38 H3          12.1600   -18.8160    36.3490 ha         1 B9I       0.128000
     39 H4          15.2000   -16.3370    34.3220 h2         1 B9I       0.055700
     40 H5          15.1810   -14.8590    32.0510 h1         1 B9I       0.061700
     41 H6          16.5820   -12.9870    33.9490 h1         1 B9I       0.049700
     42 H7          13.6280   -12.9760    33.2470 h1         1 B9I       0.053700
     43 H8          15.0850   -12.7810    35.9070 h1         1 B9I       0.059700
     44 H9          11.1560   -15.7680    32.6170 ha         1 B9I       0.161000
     45 H10          6.9790   -17.2350    32.1010 ha         1 B9I       0.165000
     46 H11          5.2020   -20.3020    34.5300 ha         1 B9I       0.129000
     47 H12          7.3100   -20.5580    35.7290 ha         1 B9I       0.135000
     48 H13         10.2250   -21.9610    38.8900 ha         1 B9I       0.145000
     49 H14          9.4050   -20.2870    40.5390 ha         1 B9I       0.130000
     50 H15          8.6750   -18.0630    39.7950 ha         1 B9I       0.136000
     51 H16          8.7400   -17.4330    37.4000 ha         1 B9I       0.162000
     52 H17         16.9470   -16.0940    32.6790 ho         1 B9I       0.394000
     53 H18          4.1190   -19.1370    32.8550 ho         1 B9I       0.424000
     54 H20         16.1160   -11.6240    32.1370 ho         1 B9I       0.419000
     55 O6          12.5930   -11.8360    35.7260 o          1 B9I      -0.815300
     56 H2          13.7750   -11.0940    34.6060 ho         1 B9I       0.477000
@<TRIPOS>BOND
     1     1     4 1   
     2     1     7 1   
     3     1    22 1   
     4     1    25 1   
     5     2    18 ar  
     6     2    25 ar  
     7     2    33 1   
     8     3     4 ar  
     9     3    17 ar  
    10     3    33 1   
    11     4     9 ar  
    12     5     9 ar  
    13     5    29 ar  
    14     5    37 1   
    15     6    14 1   
    16     6    56 1   
    17     7    10 1   
    18     8    11 1   
    19     8    29 1   
    20     9    38 1   
    21    10    23 1   
    22    10    30 2   
    23    11    12 1   
    24    11    35 1   
    25    11    39 1   
    26    12    13 1   
    27    12    31 1   
    28    12    40 1   
    29    13    14 1   
    30    13    36 1   
    31    13    41 1   
    32    14    15 1   
    33    14    42 1   
    34    15    16 1   
    35    15    35 1   
    36    15    43 1   
    37    16    34 1   
    38    16    55 1   
    39    17    29 ar  
    40    17    44 1   
    41    18    19 ar  
    42    18    45 1   
    43    19    20 ar  
    44    19    32 1   
    45    20    21 ar  
    46    20    46 1   
    47    21    25 ar  
    48    21    47 1   
    49    22    23 ar  
    50    22    28 ar  
    51    23    24 ar  
    52    24    26 ar  
    53    24    48 1   
    54    26    27 ar  
    55    26    49 1   
    56    27    28 ar  
    57    27    50 1   
    58    28    51 1   
    59    31    52 1   
    60    32    53 1   
    61    36    54 1   
@<TRIPOS>SUBSTRUCTURE
     1 B9I         1 TEMP              0 ****  ****    0 ROOT
