@<TRIPOS>MOLECULE
B9K
   50    53     1     0     0
SMALL
abcg2


@<TRIPOS>ATOM
      1 C17         -2.5920    -0.7620     0.3160 ca         1 B9K      -0.114500
      2 C20         -4.0210     1.5180    -0.3220 ca         1 B9K      -0.132500
      3 C21         -2.6410     1.5440    -0.2950 ca         1 B9K      -0.114500
      4 C24         -8.2850     1.4450     0.2020 c6         1 B9K       0.148600
      5 C26         -8.2630    -0.8190    -0.2810 c6         1 B9K       0.148600
      6 C01          2.4200    -2.2410    -0.6290 ca         1 B9K      -0.209000
      7 C02          1.0750    -2.5010    -0.7690 ca         1 B9K       0.385900
      8 N03          0.1050    -1.6190    -0.5400 nb         1 B9K      -0.733000
      9 C04          0.4610    -0.4040    -0.1440 ca         1 B9K       0.629900
     10 C05          1.8040    -0.0360     0.0470 ca         1 B9K      -0.246000
     11 C06          2.8070    -0.9610    -0.1980 ca         1 B9K       0.085000
     12 C07          4.2050    -0.6220    -0.0100 cc         1 B9K      -0.167000
     13 N08          4.6620     0.6800    -0.0170 na         1 B9K      -0.278500
     14 C09          5.9840     0.6460     0.2200 cc         1 B9K       0.521800
     15 N10          6.4130    -0.5780     0.3960 nd         1 B9K      -0.692000
     16 C11          5.3200    -1.3850     0.2550 cd         1 B9K       0.297300
     17 C12          5.4420    -2.8610     0.4240 c3         1 B9K      -0.117400
     18 S13          6.9420     2.1030     0.2700 ss         1 B9K      -0.359300
     19 C14          8.5680     1.3950     0.6070 c3         1 B9K       0.048900
     20 C16         -1.8950     0.4070     0.0250 ca         1 B9K       0.281000
     21 C18         -3.9810    -0.7850     0.2910 ca         1 B9K      -0.132500
     22 C19         -4.7340     0.3480    -0.0290 ca         1 B9K       0.261000
     23 N22         -6.1320     0.3380    -0.0940 nh         1 B9K      -0.776400
     24 C23         -6.8240     1.4140     0.6050 c6         1 B9K       0.154800
     25 O25         -8.9180     0.2070     0.4300 os         1 B9K      -0.446000
     26 C27         -6.8000    -0.9330     0.1050 c6         1 B9K       0.154800
     27 H1          -2.0640    -1.6640     0.5800 ha         1 B9K       0.122000
     28 H2          -4.5450     2.4220    -0.6030 ha         1 B9K       0.113500
     29 H3          -2.1300     2.4680    -0.5400 ha         1 B9K       0.122000
     30 H4          -8.8110     2.1980     0.7900 h1         1 B9K       0.052450
     31 H5          -8.3620     1.7270    -0.8580 h1         1 B9K       0.052450
     32 H6          -8.7750    -1.7550    -0.0530 h1         1 B9K       0.052450
     33 H7          -8.3400    -0.6440    -1.3630 h1         1 B9K       0.052450
     34 H9           0.7510    -3.4820    -1.0990 h4         1 B9K       0.018100
     35 H10          2.0310     0.9580     0.4150 ha         1 B9K       0.112000
     36 H11          4.1160     1.5010    -0.2270 hn         1 B9K       0.362000
     37 H13          5.5190    -3.3780    -0.5350 hc         1 B9K       0.048700
     38 H14          6.3410    -3.0940     0.9920 hc         1 B9K       0.048700
     39 H15          4.5890    -3.2830     0.9530 hc         1 B9K       0.048700
     40 H16          8.5720     0.8650     1.5560 h1         1 B9K       0.073700
     41 H17          8.8780     0.7280    -0.1930 h1         1 B9K       0.073700
     42 H18          9.2530     2.2370     0.6620 h1         1 B9K       0.073700
     43 H20         -4.4670    -1.7160     0.5490 ha         1 B9K       0.113500
     44 H21         -6.3880     2.3790     0.3500 h1         1 B9K       0.046450
     45 H22         -6.7380     1.2920     1.6950 h1         1 B9K       0.046450
     46 H23         -6.7170    -1.2830     1.1460 h1         1 B9K       0.046450
     47 H24         -6.3440    -1.6940    -0.5310 h1         1 B9K       0.046450
     48 N15         -0.5060     0.5340     0.0900 nu         1 B9K      -0.948900
     49 H8           3.1440    -3.0060    -0.8650 ha         1 B9K       0.131000
     50 H19         -0.1700     1.4740     0.2300 hn         1 B9K       0.492000
@<TRIPOS>BOND
     1     1    20 ar  
     2     1    21 ar  
     3     1    27 1   
     4     2     3 ar  
     5     2    22 ar  
     6     2    28 1   
     7     3    20 ar  
     8     3    29 1   
     9     4    24 1   
    10     4    25 1   
    11     4    30 1   
    12     4    31 1   
    13     5    25 1   
    14     5    26 1   
    15     5    32 1   
    16     5    33 1   
    17     6     7 ar  
    18     6    11 ar  
    19     6    49 1   
    20     7     8 ar  
    21     7    34 1   
    22     8     9 ar  
    23     9    10 ar  
    24     9    48 1   
    25    10    11 ar  
    26    10    35 1   
    27    11    12 1   
    28    12    13 1   
    29    12    16 2   
    30    13    14 1   
    31    13    36 1   
    32    14    15 2   
    33    14    18 1   
    34    15    16 1   
    35    16    17 1   
    36    17    37 1   
    37    17    38 1   
    38    17    39 1   
    39    18    19 1   
    40    19    40 1   
    41    19    41 1   
    42    19    42 1   
    43    20    48 1   
    44    21    22 ar  
    45    21    43 1   
    46    22    23 1   
    47    23    24 1   
    48    23    26 1   
    49    24    44 1   
    50    24    45 1   
    51    26    46 1   
    52    26    47 1   
    53    48    50 1   
@<TRIPOS>SUBSTRUCTURE
     1 B9K         1 TEMP              0 ****  ****    0 ROOT
