@<TRIPOS>MOLECULE
B9K
   50    53     1     0     0
SMALL
No Charge or Current Charge


@<TRIPOS>ATOM
      1 C17         -2.5490    -0.7630     0.3200 ca         1 B9K      -0.114500
      2 C20         -4.0830     1.4860    -0.3370 ca         1 B9K      -0.132500
      3 C21         -2.6790     1.5390    -0.4170 ca         1 B9K      -0.114500
      4 C24         -8.3860     1.4370     0.4710 c6         1 B9K       0.148600
      5 C26         -8.3880    -0.7980    -0.4190 c6         1 B9K       0.148600
      6 C01          2.5330    -2.1600    -0.8500 ca         1 B9K      -0.209000
      7 C02          1.1790    -2.4600    -1.0590 ca         1 B9K       0.385900
      8 N03          0.1850    -1.5790    -0.8250 nb         1 B9K      -0.733000
      9 C04          0.5290    -0.3720    -0.3700 ca         1 B9K       0.629900
     10 C05          1.8510     0.0250    -0.1480 ca         1 B9K      -0.246000
     11 C06          2.8900    -0.8900    -0.3720 ca         1 B9K       0.085000
     12 C07          4.2820    -0.4960    -0.1520 cc         1 B9K      -0.167000
     13 N08          4.8430     0.7510    -0.3240 na         1 B9K      -0.278500
     14 C09          6.1370     0.6240     0.0760 cc         1 B9K       0.521800
     15 N10          6.4410    -0.5730     0.5330 nd         1 B9K      -0.692000
     16 C11          5.2660    -1.2940     0.4070 cd         1 B9K       0.297300
     17 C12          5.1880    -2.7170     0.8920 c3         1 B9K      -0.117400
     18 S13          7.2420     1.9860     0.0180 ss         1 B9K      -0.359300
     19 C14          8.8050     1.2540     0.6890 c3         1 B9K       0.048900
     20 C16         -1.8990     0.4130    -0.1020 ca         1 B9K       0.281000
     21 C18         -3.9530    -0.8170     0.4000 ca         1 B9K      -0.132500
     22 C19         -4.7370     0.3070     0.0710 ca         1 B9K       0.261000
     23 N22         -6.1520     0.2690     0.1450 nh         1 B9K      -0.776400
     24 C23         -6.9000     1.3130     0.9230 c6         1 B9K       0.154800
     25 O25         -9.0330     0.1420     0.4710 os         1 B9K      -0.446000
     26 C27         -6.9020    -1.0220    -0.0070 c6         1 B9K       0.154800
     27 H1          -1.9720    -1.6370     0.6060 ha         1 B9K       0.122000
     28 H2          -4.6640     2.3630    -0.6060 ha         1 B9K       0.113500
     29 H3          -2.1990     2.4600    -0.7370 ha         1 B9K       0.122000
     30 H4          -8.9270     2.1100     1.1500 h1         1 B9K       0.052450
     31 H5          -8.4340     1.8640    -0.5410 h1         1 B9K       0.052450
     32 H6          -8.9310    -1.7530    -0.3900 h1         1 B9K       0.052450
     33 H7          -8.4360    -0.4120    -1.4480 h1         1 B9K       0.052450
     34 H9           0.8800    -3.4380    -1.4360 h4         1 B9K       0.018100
     35 H10          2.0660     1.0260     0.2120 ha         1 B9K       0.112000
     36 H11          4.4100     1.5910    -0.6830 hn         1 B9K       0.362000
     37 H13          5.3430    -3.4200     0.0660 hc         1 B9K       0.048700
     38 H14          5.9540    -2.9190     1.6500 hc         1 B9K       0.048700
     39 H15          4.2130    -2.9280     1.3460 hc         1 B9K       0.048700
     40 H16          8.6390     0.8900     1.7100 h1         1 B9K       0.073700
     41 H17          9.1280     0.4170     0.0560 h1         1 B9K       0.073700
     42 H18          9.5950     2.0160     0.7050 h1         1 B9K       0.073700
     43 H20         -4.4240    -1.7360     0.7370 ha         1 B9K       0.113500
     44 H21         -6.4260     2.2990     0.8140 h1         1 B9K       0.046450
     45 H22         -6.8770     1.0630     1.9940 h1         1 B9K       0.046450
     46 H23         -6.8800    -1.5820     0.9400 h1         1 B9K       0.046450
     47 H24         -6.4240    -1.6510    -0.7720 h1         1 B9K       0.046450
     48 N15         -0.5040     0.5200    -0.1760 nu         1 B9K      -0.948900
     49 H8           3.2830    -2.9080    -1.0850 ha         1 B9K       0.131000
     50 H19         -0.1640     1.4770    -0.1390 hn         1 B9K       0.492000
@<TRIPOS>BOND
     1     1    20 ar  
     2     1    21 ar  
     3     1    27 1   
     4     2     3 ar  
     5     2    22 ar  
     6     2    28 1   
     7     3    20 ar  
     8     3    29 1   
     9     4    24 1   
    10     4    25 1   
    11     4    30 1   
    12     4    31 1   
    13     5    25 1   
    14     5    26 1   
    15     5    32 1   
    16     5    33 1   
    17     6     7 ar  
    18     6    11 ar  
    19     6    49 1   
    20     7     8 ar  
    21     7    34 1   
    22     8     9 ar  
    23     9    10 ar  
    24     9    48 1   
    25    10    11 ar  
    26    10    35 1   
    27    11    12 1   
    28    12    13 1   
    29    12    16 2   
    30    13    14 1   
    31    13    36 1   
    32    14    15 2   
    33    14    18 1   
    34    15    16 1   
    35    16    17 1   
    36    17    37 1   
    37    17    38 1   
    38    17    39 1   
    39    18    19 1   
    40    19    40 1   
    41    19    41 1   
    42    19    42 1   
    43    20    48 1   
    44    21    22 ar  
    45    21    43 1   
    46    22    23 1   
    47    23    24 1   
    48    23    26 1   
    49    24    44 1   
    50    24    45 1   
    51    26    46 1   
    52    26    47 1   
    53    48    50 1   
@<TRIPOS>SUBSTRUCTURE
     1 B9K         1 TEMP              0 ****  ****    0 ROOT
