@<TRIPOS>MOLECULE
B9L
   51    53     1     0     0
SMALL
No Charge or Current Charge


@<TRIPOS>ATOM
      1 N           -1.4660    -0.3280     1.6160 n7         1 B9L      -0.843400
      2 CA          -1.4450     0.6780     0.5060 c3         1 B9L       0.105500
      3 C           -0.2880     1.7340     0.6170 c          1 B9L       0.603100
      4 O           -0.2970     2.6730     1.4070 o          1 B9L      -0.586100
      5 CB          -2.8270     1.3690     0.3970 c3         1 B9L      -0.035100
      6 CG          -3.9590     0.3920     0.0880 ca         1 B9L      -0.089300
      7 CD1         -4.0730    -0.1770    -1.1960 ca         1 B9L      -0.107000
      8 CD2         -4.8990     0.0490     1.0800 ca         1 B9L      -0.107000
      9 CE1         -5.1110    -1.0800    -1.4840 ca         1 B9L      -0.110500
     10 CE2         -5.9380    -0.8540     0.7930 ca         1 B9L      -0.110500
     11 CZ          -6.0440    -1.4190    -0.4890 ca         1 B9L      -0.110000
     12 CAB          1.5920    -2.8610    -1.3460 ca         1 B9L      -0.146000
     13 CAC          1.9690    -3.7230    -0.2870 ca         1 B9L      -0.096000
     14 CAD          2.7660    -3.2440     0.7760 ca         1 B9L      -0.127000
     15 CAE          3.1610    -1.9010     0.7420 ca         1 B9L      -0.049200
     16 CAF          2.7920    -1.0690    -0.2770 ca         1 B9L      -0.089800
     17 CAG          2.0060    -1.5110    -1.3510 ca         1 B9L      -0.067000
     18 CAI         -0.2830    -1.2100     1.6950 c3         1 B9L       0.140100
     19 CAK          4.0710     0.1440     1.2260 cc         1 B9L      -0.143100
     20 CAL          3.3620     0.2240     0.0320 cd         1 B9L      -0.141400
     21 CAM          3.1810     1.4790    -0.7900 c3         1 B9L      -0.012200
     22 CAN          1.9850     2.3380    -0.3090 c3         1 B9L       0.113700
     23 CAO          1.7980     3.6430    -1.1340 c3         1 B9L       0.145600
     24 NAJ          3.9290    -1.1950     1.6500 na         1 B9L      -0.219700
     25 NAX          0.7550     1.5360    -0.2610 ns         1 B9L      -0.502900
     26 H1          -2.2960    -0.9200     1.4790 hn         1 B9L       0.418000
     27 H3          -1.2870     0.1450    -0.4410 h1         1 B9L       0.024700
     28 H4          -3.0310     1.9160     1.3260 hc         1 B9L       0.063700
     29 H5          -2.7780     2.1280    -0.3940 hc         1 B9L       0.063700
     30 H6          -3.3550     0.0800    -1.9730 ha         1 B9L       0.114500
     31 H7          -4.8240     0.4800     2.0770 ha         1 B9L       0.114500
     32 H8          -5.1930    -1.5160    -2.4770 ha         1 B9L       0.113000
     33 H9          -6.6590    -1.1150     1.5640 ha         1 B9L       0.113000
     34 H10         -6.8480    -2.1170    -0.7120 ha         1 B9L       0.112000
     35 H12          1.6440    -4.7620    -0.2930 ha         1 B9L       0.109000
     36 H13          3.0610    -3.8980     1.5930 ha         1 B9L       0.113000
     37 H14          1.7240    -0.8430    -2.1610 ha         1 B9L       0.111000
     38 H15         -0.1630    -1.7880     0.7690 h1         1 B9L       0.034700
     39 H16          0.6340    -0.6290     1.8590 h1         1 B9L       0.034700
     40 H17         -0.3850    -1.9200     2.5270 h1         1 B9L       0.034700
     41 H18          4.6250     0.8930     1.7840 h4         1 B9L       0.212000
     42 H19          4.0940     2.0850    -0.7440 hc         1 B9L       0.053200
     43 H20          3.0430     1.2160    -1.8450 hc         1 B9L       0.053200
     44 H21          2.2160     2.6450     0.7210 h1         1 B9L       0.082700
     45 H22          1.0250     4.2570    -0.6530 h1         1 B9L       0.028700
     46 H23          2.7340     4.2180    -1.1080 h1         1 B9L       0.028700
     47 H24          4.3300    -1.5870     2.4970 hn         1 B9L       0.351000
     48 H25          0.6900     0.7310    -0.8690 hn         1 B9L       0.317500
     49 H26          1.2980     4.2270    -2.9440 ho         1 B9L       0.445000
     50 OAP          1.4240     3.3610    -2.4950 oh         1 B9L      -0.668000
     51 H11          0.9810    -3.2410    -2.1610 ha         1 B9L       0.108000
@<TRIPOS>BOND
     1     1     2 1   
     2     1    18 1   
     3     1    26 1   
     4     2     3 1   
     5     2     5 1   
     6     2    27 1   
     7     3     4 2   
     8     3    25 1   
     9     5     6 1   
    10     5    28 1   
    11     5    29 1   
    12     6     7 ar  
    13     6     8 ar  
    14     7     9 ar  
    15     7    30 1   
    16     8    10 ar  
    17     8    31 1   
    18     9    11 ar  
    19     9    32 1   
    20    10    11 ar  
    21    10    33 1   
    22    11    34 1   
    23    12    13 ar  
    24    12    17 ar  
    25    12    51 1   
    26    13    14 ar  
    27    13    35 1   
    28    14    15 ar  
    29    14    36 1   
    30    15    16 ar  
    31    15    24 1   
    32    16    17 ar  
    33    16    20 1   
    34    17    37 1   
    35    18    38 1   
    36    18    39 1   
    37    18    40 1   
    38    19    20 2   
    39    19    24 1   
    40    19    41 1   
    41    20    21 1   
    42    21    22 1   
    43    21    42 1   
    44    21    43 1   
    45    22    23 1   
    46    22    25 1   
    47    22    44 1   
    48    23    45 1   
    49    23    46 1   
    50    23    50 1   
    51    24    47 1   
    52    25    48 1   
    53    49    50 1   
@<TRIPOS>SUBSTRUCTURE
     1 B9L         1 TEMP              0 ****  ****    0 ROOT
