@<TRIPOS>MOLECULE
B9L
   51    53     1     0     0
SMALL
bcc


@<TRIPOS>ATOM
      1 N           -1.4670    -0.6480     1.5980 n7         1 B9L      -0.788200
      2 CA          -1.2740     0.2740     0.5090 c3         1 B9L       0.105500
      3 C           -0.0400     1.1410     0.7640 c          1 B9L       0.670100
      4 O            0.2750     1.5010     1.8870 o          1 B9L      -0.586100
      5 CB          -2.4850     1.2170     0.3840 c3         1 B9L      -0.035100
      6 CG          -3.7540     0.4770     0.0610 ca         1 B9L      -0.089300
      7 CD1         -3.9870     0.0090    -1.2320 ca         1 B9L      -0.125000
      8 CD2         -4.7060     0.2170     1.0430 ca         1 B9L      -0.125000
      9 CE1         -5.1410    -0.6990    -1.5350 ca         1 B9L      -0.128500
     10 CE2         -5.8630    -0.4930     0.7440 ca         1 B9L      -0.128500
     11 CZ          -6.0830    -0.9540    -0.5460 ca         1 B9L      -0.128000
     12 CAB          1.7700    -2.8600    -1.1980 ca         1 B9L      -0.164000
     13 CAC          2.2110    -3.6470    -0.1210 ca         1 B9L      -0.114000
     14 CAD          2.9430    -3.0990     0.9140 ca         1 B9L      -0.145000
     15 CAE          3.2270    -1.7350     0.8500 ca         1 B9L      -0.049200
     16 CAF          2.7930    -0.9240    -0.2230 ca         1 B9L      -0.089800
     17 CAG          2.0510    -1.5090    -1.2550 ca         1 B9L      -0.085000
     18 CAI         -0.4950    -1.7240     1.6240 c3         1 B9L       0.140100
     19 CAK          3.9440     0.3410     1.2160 cc         1 B9L      -0.093100
     20 CAL          3.2670     0.4040     0.0310 cd         1 B9L      -0.141400
     21 CAM          3.0230     1.6180    -0.8010 c3         1 B9L      -0.012200
     22 CAN          1.7610     2.3860    -0.3780 c3         1 B9L       0.113700
     23 CAO          1.5000     3.6030    -1.2490 c3         1 B9L       0.122400
     24 NAJ          3.9200    -0.9340     1.7080 na         1 B9L      -0.169400
     25 NAX          0.6030     1.5200    -0.3530 ns         1 B9L      -0.569900
     26 H1          -2.3940    -1.0480     1.5260 hn         1 B9L       0.362800
     27 H3          -1.1470    -0.2450    -0.4580 h1         1 B9L       0.024700
     28 H4          -2.5980     1.7680     1.3210 hc         1 B9L       0.063700
     29 H5          -2.2800     1.9510    -0.3980 hc         1 B9L       0.063700
     30 H6          -3.2590     0.2070    -2.0120 ha         1 B9L       0.132500
     31 H7          -4.5440     0.5760     2.0530 ha         1 B9L       0.132500
     32 H8          -5.3070    -1.0500    -2.5460 ha         1 B9L       0.131000
     33 H9          -6.5910    -0.6850     1.5220 ha         1 B9L       0.131000
     34 H10         -6.9840    -1.5050    -0.7820 ha         1 B9L       0.130000
     35 H12          1.9730    -4.7030    -0.1030 ha         1 B9L       0.127000
     36 H13          3.2850    -3.7060     1.7430 ha         1 B9L       0.131000
     37 H14          1.7010    -0.9180    -2.0920 ha         1 B9L       0.129000
     38 H15         -0.4550    -2.3130     0.7000 h1         1 B9L       0.034700
     39 H16          0.5080    -1.3310     1.7940 h1         1 B9L       0.034700
     40 H17         -0.7250    -2.4010     2.4470 h1         1 B9L       0.034700
     41 H18          4.4520     1.1260     1.7560 h4         1 B9L       0.162000
     42 H19          3.8700     2.3050    -0.7260 hc         1 B9L       0.053200
     43 H20          2.9500     1.3390    -1.8560 hc         1 B9L       0.053200
     44 H21          1.9100     2.7470     0.6400 h1         1 B9L       0.082700
     45 H22          0.6510     4.1570    -0.8320 h1         1 B9L       0.028700
     46 H23          2.3760     4.2630    -1.1950 h1         1 B9L       0.028700
     47 H24          4.3620    -1.2320     2.5610 hn         1 B9L       0.300700
     48 H25          0.2830     1.1520    -1.2350 hn         1 B9L       0.317500
     49 H26          0.9670     3.9410    -3.0850 ho         1 B9L       0.406000
     50 OAP          1.2440     3.1790    -2.5690 oh         1 B9L      -0.605800
     51 H11          1.1990    -3.3230    -1.9930 ha         1 B9L       0.126000
@<TRIPOS>BOND
     1     1     2 1   
     2     1    18 1   
     3     1    26 1   
     4     2     3 1   
     5     2     5 1   
     6     2    27 1   
     7     3     4 2   
     8     3    25 1   
     9     5     6 1   
    10     5    28 1   
    11     5    29 1   
    12     6     7 ar  
    13     6     8 ar  
    14     7     9 ar  
    15     7    30 1   
    16     8    10 ar  
    17     8    31 1   
    18     9    11 ar  
    19     9    32 1   
    20    10    11 ar  
    21    10    33 1   
    22    11    34 1   
    23    12    13 ar  
    24    12    17 ar  
    25    12    51 1   
    26    13    14 ar  
    27    13    35 1   
    28    14    15 ar  
    29    14    36 1   
    30    15    16 ar  
    31    15    24 1   
    32    16    17 ar  
    33    16    20 1   
    34    17    37 1   
    35    18    38 1   
    36    18    39 1   
    37    18    40 1   
    38    19    20 2   
    39    19    24 1   
    40    19    41 1   
    41    20    21 1   
    42    21    22 1   
    43    21    42 1   
    44    21    43 1   
    45    22    23 1   
    46    22    25 1   
    47    22    44 1   
    48    23    45 1   
    49    23    46 1   
    50    23    50 1   
    51    24    47 1   
    52    25    48 1   
    53    49    50 1   
@<TRIPOS>SUBSTRUCTURE
     1 B9L         1 TEMP              0 ****  ****    0 ROOT
