@<TRIPOS>MOLECULE
B9M
   45    44     1     0     0
SMALL
bcc


@<TRIPOS>ATOM
      1 C16          9.7090    -1.4770    -0.3850 c3         1 B9M      -0.091100
      2 C15          8.3480    -0.8930    -0.7300 c3         1 B9M      -0.074400
      3 C14          7.4620    -0.7440     0.5110 c3         1 B9M       0.009700
      4 C13          6.1510    -0.1830     0.2100 c1         1 B9M      -0.126100
      5 C12          5.0720     0.2880    -0.0570 cg         1 B9M      -0.170300
      6 C11          3.8020     0.8250    -0.4100 ce         1 B9M      -0.023700
      7 C10          2.8580     1.1710     0.4710 c2         1 B9M      -0.146200
      8 C9           1.5130     1.6910     0.0900 c3         1 B9M      -0.045200
      9 C8           0.3920     0.7330     0.5020 c3         1 B9M      -0.073400
     10 C7          -0.9900     1.2290     0.0980 c3         1 B9M      -0.074400
     11 C6          -2.0970     0.2380     0.4350 c3         1 B9M      -0.074400
     12 C5          -3.4790     0.7060    -0.0040 c3         1 B9M      -0.074400
     13 C4          -4.5680    -0.3310     0.2430 c3         1 B9M      -0.074400
     14 C3          -5.9480     0.1270    -0.2130 c3         1 B9M      -0.074400
     15 C2          -7.0240    -0.9330    -0.0100 c3         1 B9M      -0.081400
     16 C1          -8.3850    -0.4640    -0.4840 c3         1 B9M       0.140400
     17 O           -9.3320    -1.4890    -0.2620 oh         1 B9M      -0.599800
     18 H161        10.2410    -0.8460     0.3280 hc         1 B9M       0.033033
     19 H162         9.6130    -2.4700     0.0590 hc         1 B9M       0.033033
     20 H163        10.3320    -1.5720    -1.2740 hc         1 B9M       0.033033
     21 H151         8.4700     0.0850    -1.2020 hc         1 B9M       0.045700
     22 H152         7.8410    -1.5300    -1.4590 hc         1 B9M       0.045700
     23 H141         7.3370    -1.7200     0.9910 hc         1 B9M       0.055700
     24 H142         7.9660    -0.1090     1.2470 hc         1 B9M       0.055700
     25 H11          3.6090     0.9470    -1.4720 ha         1 B9M       0.133000
     26 H10          3.0510     1.0430     1.5330 ha         1 B9M       0.125000
     27 H91C         1.3450     2.6600     0.5710 hc         1 B9M       0.046200
     28 H92C         1.4720     1.8620    -0.9900 hc         1 B9M       0.046200
     29 H81C         0.5770    -0.2450     0.0470 hc         1 B9M       0.041700
     30 H82C         0.4280     0.5770     1.5850 hc         1 B9M       0.041700
     31 H71C        -1.1940     2.1890     0.5840 hc         1 B9M       0.037700
     32 H72C        -1.0010     1.4260    -0.9790 hc         1 B9M       0.037700
     33 H61C        -1.8730    -0.7230    -0.0420 hc         1 B9M       0.038700
     34 H62C        -2.1010     0.0450     1.5130 hc         1 B9M       0.038700
     35 H51C        -3.7350     1.6360     0.5150 hc         1 B9M       0.037200
     36 H52C        -3.4540     0.9530    -1.0710 hc         1 B9M       0.037200
     37 H41C        -4.3040    -1.2580    -0.2770 hc         1 B9M       0.039700
     38 H42C        -4.6020    -0.5800     1.3090 hc         1 B9M       0.039700
     39 H31C        -6.2260     1.0400     0.3260 hc         1 B9M       0.036700
     40 H32C        -5.9040     0.4030    -1.2720 hc         1 B9M       0.036700
     41 H21C        -6.7430    -1.8440    -0.5490 hc         1 B9M       0.052200
     42 H22C        -7.0800    -1.1980     1.0500 hc         1 B9M       0.052200
     43 H11C        -8.6580     0.4550     0.0520 h1         1 B9M       0.015200
     44 H12C        -8.3260    -0.2000    -1.5490 h1         1 B9M       0.015200
     45 H          -10.1840    -1.1840    -0.5860 ho         1 B9M       0.403000
@<TRIPOS>BOND
     1     1     2 1   
     2     1    18 1   
     3     1    19 1   
     4     1    20 1   
     5     2     3 1   
     6     2    21 1   
     7     2    22 1   
     8     3     4 1   
     9     3    23 1   
    10     3    24 1   
    11     4     5 3   
    12     5     6 1   
    13     6     7 2   
    14     6    25 1   
    15     7     8 1   
    16     7    26 1   
    17     8     9 1   
    18     8    27 1   
    19     8    28 1   
    20     9    10 1   
    21     9    29 1   
    22     9    30 1   
    23    10    11 1   
    24    10    31 1   
    25    10    32 1   
    26    11    12 1   
    27    11    33 1   
    28    11    34 1   
    29    12    13 1   
    30    12    35 1   
    31    12    36 1   
    32    13    14 1   
    33    13    37 1   
    34    13    38 1   
    35    14    15 1   
    36    14    39 1   
    37    14    40 1   
    38    15    16 1   
    39    15    41 1   
    40    15    42 1   
    41    16    17 1   
    42    16    43 1   
    43    16    44 1   
    44    17    45 1   
@<TRIPOS>SUBSTRUCTURE
     1 B9M         1 TEMP              0 ****  ****    0 ROOT
