@<TRIPOS>MOLECULE
B9M
   45    44     1     0     0
SMALL
No Charge or Current Charge


@<TRIPOS>ATOM
      1 C16          9.7640    -1.4360    -0.3420 c3         1 B9M      -0.091100
      2 C15          8.3440    -0.9230    -0.6520 c3         1 B9M      -0.074400
      3 C14          7.4670    -0.7700     0.6110 c3         1 B9M       0.009700
      4 C13          6.1170    -0.2800     0.3040 c1         1 B9M      -0.126100
      5 C12          5.0120     0.1340     0.0140 cg         1 B9M      -0.170300
      6 C11          3.7130     0.5890    -0.3640 ce         1 B9M      -0.073700
      7 C10          2.9380     1.3230     0.4620 c2         1 B9M      -0.196200
      8 C9           1.5520     1.8400     0.1370 c3         1 B9M      -0.045200
      9 C8           0.4650     0.7640     0.3420 c3         1 B9M      -0.073400
     10 C7          -0.9580     1.2700     0.0210 c3         1 B9M      -0.074400
     11 C6          -2.0440     0.1910     0.2260 c3         1 B9M      -0.074400
     12 C5          -3.4670     0.6960    -0.0950 c3         1 B9M      -0.074400
     13 C4          -4.5530    -0.3830     0.1100 c3         1 B9M      -0.074400
     14 C3          -5.9760     0.1230    -0.2110 c3         1 B9M      -0.074400
     15 C2          -7.0630    -0.9560    -0.0060 c3         1 B9M      -0.081400
     16 C1          -8.4830    -0.4480    -0.3270 c3         1 B9M       0.163600
     17 O           -9.4320    -1.4980    -0.1150 oh         1 B9M      -0.662000
     18 H161        10.2900    -0.7440     0.3270 hc         1 B9M       0.033033
     19 H162         9.7250    -2.4210     0.1380 hc         1 B9M       0.033033
     20 H163        10.3470    -1.5280    -1.2670 hc         1 B9M       0.033033
     21 H151         8.4200     0.0450    -1.1640 hc         1 B9M       0.045700
     22 H152         7.8600    -1.6170    -1.3510 hc         1 B9M       0.045700
     23 H141         7.3860    -1.7360     1.1230 hc         1 B9M       0.055700
     24 H142         7.9460    -0.0730     1.3110 hc         1 B9M       0.055700
     25 H11          3.3660     0.3140    -1.3620 ha         1 B9M       0.183000
     26 H10          3.2940     1.5910     1.4590 ha         1 B9M       0.175000
     27 H91C         1.3220     2.7080     0.7690 hc         1 B9M       0.046200
     28 H92C         1.5190     2.1950    -0.9010 hc         1 B9M       0.046200
     29 H81C         0.6920    -0.1010    -0.2930 hc         1 B9M       0.041700
     30 H82C         0.4990     0.4150     1.3820 hc         1 B9M       0.041700
     31 H71C        -1.1850     2.1350     0.6570 hc         1 B9M       0.037700
     32 H72C        -0.9900     1.6200    -1.0190 hc         1 B9M       0.037700
     33 H61C        -1.8170    -0.6740    -0.4100 hc         1 B9M       0.038700
     34 H62C        -2.0120    -0.1590     1.2660 hc         1 B9M       0.038700
     35 H51C        -3.6940     1.5610     0.5410 hc         1 B9M       0.037200
     36 H52C        -3.4990     1.0460    -1.1350 hc         1 B9M       0.037200
     37 H41C        -4.3260    -1.2480    -0.5260 hc         1 B9M       0.039700
     38 H42C        -4.5210    -0.7330     1.1500 hc         1 B9M       0.039700
     39 H31C        -6.2030     0.9880     0.4250 hc         1 B9M       0.036700
     40 H32C        -6.0080     0.4730    -1.2510 hc         1 B9M       0.036700
     41 H21C        -6.8390    -1.8200    -0.6430 hc         1 B9M       0.052200
     42 H22C        -7.0340    -1.3050     1.0340 hc         1 B9M       0.052200
     43 H11C        -8.7160     0.4110     0.3170 h1         1 B9M       0.015200
     44 H12C        -8.5190    -0.1080    -1.3710 h1         1 B9M       0.015200
     45 H          -10.3170    -1.1290    -0.3310 ho         1 B9M       0.442000
@<TRIPOS>BOND
     1     1     2 1   
     2     1    18 1   
     3     1    19 1   
     4     1    20 1   
     5     2     3 1   
     6     2    21 1   
     7     2    22 1   
     8     3     4 1   
     9     3    23 1   
    10     3    24 1   
    11     4     5 3   
    12     5     6 1   
    13     6     7 2   
    14     6    25 1   
    15     7     8 1   
    16     7    26 1   
    17     8     9 1   
    18     8    27 1   
    19     8    28 1   
    20     9    10 1   
    21     9    29 1   
    22     9    30 1   
    23    10    11 1   
    24    10    31 1   
    25    10    32 1   
    26    11    12 1   
    27    11    33 1   
    28    11    34 1   
    29    12    13 1   
    30    12    35 1   
    31    12    36 1   
    32    13    14 1   
    33    13    37 1   
    34    13    38 1   
    35    14    15 1   
    36    14    39 1   
    37    14    40 1   
    38    15    16 1   
    39    15    41 1   
    40    15    42 1   
    41    16    17 1   
    42    16    43 1   
    43    16    44 1   
    44    17    45 1   
@<TRIPOS>SUBSTRUCTURE
     1 B9M         1 TEMP              0 ****  ****    0 ROOT
