@<TRIPOS>MOLECULE
B9N
   52    54     1     0     0
SMALL
bcc


@<TRIPOS>ATOM
      1 O32         -2.3450     1.2230    -2.4740 o          1 B9N      -0.632800
      2 S13         -1.6770     2.1080    -1.5200 sy         1 B9N       1.152600
      3 O31         -1.4650     3.4970    -1.9290 o          1 B9N      -0.632800
      4 C14         -2.5880     2.1350     0.0130 ca         1 B9N      -0.272500
      5 C19         -2.8480     0.9730     0.7510 ca         1 B9N       0.126700
      6 C20         -2.3110    -0.3900     0.4080 c3         1 B9N      -0.207400
      7 C25         -1.1010    -0.7600     1.3200 c          1 B9N       0.945600
      8 O27         -0.1720    -1.3800     0.7770 o          1 B9N      -0.830800
      9 O26         -1.1950    -0.4470     2.5230 o          1 B9N      -0.830800
     10 C21         -3.4010    -1.4730     0.5210 c3         1 B9N      -0.019400
     11 C22         -2.9830    -2.8090    -0.0730 c3         1 B9N      -0.200400
     12 C23         -4.0570    -3.9090    -0.0400 c          1 B9N       0.925600
     13 O30         -5.0840    -3.7080     0.6390 o          1 B9N      -0.872300
     14 O29         -3.8020    -4.9420    -0.6960 o          1 B9N      -0.872300
     15 C18         -3.6270     1.1370     1.8990 ca         1 B9N      -0.108000
     16 C17         -4.1250     2.3700     2.2830 ca         1 B9N      -0.101000
     17 C16         -3.8450     3.5050     1.5350 ca         1 B9N      -0.196000
     18 C15         -3.0720     3.3850     0.3950 ca         1 B9N      -0.070000
     19 C3          -0.0940     1.4320    -1.1210 ca         1 B9N      -0.224500
     20 C2           0.4220     0.4000    -1.8860 ca         1 B9N      -0.013500
     21 C4           0.6420     2.0050    -0.0940 ca         1 B9N      -0.013500
     22 C5           1.9050     1.5160     0.1800 ca         1 B9N      -0.118000
     23 C6           2.4510     0.4730    -0.5730 cp         1 B9N       0.015000
     24 C1           1.6930    -0.0680    -1.6110 ca         1 B9N      -0.118000
     25 C7           3.7990    -0.0450    -0.2820 cp         1 B9N      -0.041000
     26 C12          4.0840    -1.4090    -0.3970 ca         1 B9N      -0.078000
     27 C11          5.3460    -1.9050    -0.1370 ca         1 B9N      -0.197500
     28 C10          6.3760    -1.0420     0.2480 ca         1 B9N       0.116100
     29 O28          7.5740    -1.6080     0.4750 os         1 B9N      -0.325900
     30 C29          8.6490    -0.7780     0.8690 c3         1 B9N       0.132700
     31 C9           6.1100     0.3200     0.3700 ca         1 B9N      -0.197500
     32 C8           4.8330     0.8000     0.1090 ca         1 B9N      -0.078000
     33 H1          -1.9680    -0.4110    -0.6240 hc         1 B9N       0.045700
     34 H3          -3.6850    -1.6170     1.5650 hc         1 B9N       0.028200
     35 H4          -4.3000    -1.1170     0.0080 hc         1 B9N       0.028200
     36 H5          -2.6610    -2.6700    -1.1110 hc         1 B9N       0.033700
     37 H6          -2.0970    -3.1880     0.4460 hc         1 B9N       0.033700
     38 H8          -3.8590     0.2740     2.5050 ha         1 B9N       0.163000
     39 H9          -4.7320     2.4460     3.1770 ha         1 B9N       0.106000
     40 H10         -4.2250     4.4730     1.8310 ha         1 B9N       0.101000
     41 H11         -2.8480     4.2630    -0.1940 ha         1 B9N       0.132000
     42 H12         -0.1550    -0.0400    -2.6880 ha         1 B9N       0.146500
     43 H13          0.2350     2.8100     0.5050 ha         1 B9N       0.146500
     44 H14          2.4660     1.9390     1.0030 ha         1 B9N       0.120000
     45 H15          2.1030    -0.8610    -2.2230 ha         1 B9N       0.120000
     46 H16          3.3000    -2.1030    -0.6740 ha         1 B9N       0.145000
     47 H17          5.5420    -2.9660    -0.2220 ha         1 B9N       0.127500
     48 H18          9.5110    -1.4290     0.9980 h1         1 B9N       0.030033
     49 H19          8.8870    -0.0290     0.1100 h1         1 B9N       0.030033
     50 H20          8.4470    -0.2700     1.8150 h1         1 B9N       0.030033
     51 H21          6.8800     1.0230     0.6560 ha         1 B9N       0.127500
     52 H22          4.6600     1.8660     0.1930 ha         1 B9N       0.145000
@<TRIPOS>BOND
     1     1     2 2   
     2     2     3 2   
     3     2     4 1   
     4     2    19 1   
     5     4     5 ar  
     6     4    18 ar  
     7     5     6 1   
     8     5    15 ar  
     9     6     7 1   
    10     6    10 1   
    11     6    33 1   
    12     7     8 1   
    13     7     9 1   
    14    10    11 1   
    15    10    34 1   
    16    10    35 1   
    17    11    12 1   
    18    11    36 1   
    19    11    37 1   
    20    12    13 1   
    21    12    14 1   
    22    15    16 ar  
    23    15    38 1   
    24    16    17 ar  
    25    16    39 1   
    26    17    18 ar  
    27    17    40 1   
    28    18    41 1   
    29    19    20 ar  
    30    19    21 ar  
    31    20    24 ar  
    32    20    42 1   
    33    21    22 ar  
    34    21    43 1   
    35    22    23 ar  
    36    22    44 1   
    37    23    24 ar  
    38    23    25 1   
    39    24    45 1   
    40    25    26 ar  
    41    25    32 ar  
    42    26    27 ar  
    43    26    46 1   
    44    27    28 ar  
    45    27    47 1   
    46    28    29 1   
    47    28    31 ar  
    48    29    30 1   
    49    30    48 1   
    50    30    49 1   
    51    30    50 1   
    52    31    32 ar  
    53    31    51 1   
    54    32    52 1   
@<TRIPOS>SUBSTRUCTURE
     1 B9N         1 TEMP              0 ****  ****    0 ROOT
