@<TRIPOS>MOLECULE
B9N
   52    54     1     0     0
SMALL
No Charge or Current Charge


@<TRIPOS>ATOM
      1 O32         -2.4090     0.8320    -2.4050 o          1 B9N      -0.562000
      2 S13         -1.7300     1.8760    -1.6230 sy         1 B9N       1.011000
      3 O31         -1.5880     3.2300    -2.1800 o          1 B9N      -0.562000
      4 C14         -2.5550     2.0260    -0.0050 ca         1 B9N      -0.272500
      5 C19         -2.8310     0.9110     0.8480 ca         1 B9N       0.126700
      6 C20         -2.4390    -0.5500     0.5340 c3         1 B9N      -0.207400
      7 C25         -1.4370    -1.1060     1.5760 c          1 B9N       0.735000
      8 O27         -0.3200    -1.4150     1.1900 o          1 B9N      -0.725500
      9 O26         -1.7880    -1.2190     2.7420 o          1 B9N      -0.725500
     10 C21         -3.6910    -1.4590     0.3730 c3         1 B9N      -0.019400
     11 C22         -3.3780    -2.8780    -0.1640 c3         1 B9N      -0.200400
     12 C23         -4.6790    -3.6790    -0.3350 c          1 B9N       0.715000
     13 O30         -5.0900    -4.3260     0.6170 o          1 B9N      -0.767000
     14 O29         -5.2700    -3.6030    -1.4010 o          1 B9N      -0.767000
     15 C18         -3.5390     1.1530     2.0500 ca         1 B9N      -0.090000
     16 C17         -3.9290     2.4440     2.4320 ca         1 B9N      -0.083000
     17 C16         -3.6270     3.5300     1.6090 ca         1 B9N      -0.178000
     18 C15         -2.9510     3.3240     0.4000 ca         1 B9N      -0.052000
     19 C3          -0.0700     1.2970    -1.2300 ca         1 B9N      -0.224500
     20 C2           0.4530     0.1350    -1.8300 ca         1 B9N       0.004500
     21 C4           0.7200     2.0290    -0.3240 ca         1 B9N       0.004500
     22 C5           2.0220     1.5990    -0.0190 ca         1 B9N      -0.100000
     23 C6           2.5690     0.4320    -0.6080 cp         1 B9N       0.015000
     24 C1           1.7570    -0.2890    -1.5200 ca         1 B9N      -0.100000
     25 C7           3.9580    -0.0240    -0.2810 cp         1 B9N      -0.041000
     26 C12          4.2780    -1.4020    -0.2050 ca         1 B9N      -0.060000
     27 C11          5.5820    -1.8280     0.1020 ca         1 B9N      -0.179500
     28 C10          6.5990    -0.8920     0.3390 ca         1 B9N       0.116100
     29 O28          7.8600    -1.3690     0.6350 os         1 B9N      -0.349100
     30 C29          8.9700    -0.4920     0.8940 c3         1 B9N       0.155900
     31 C9           6.3030     0.4850     0.2670 ca         1 B9N      -0.179500
     32 C8           4.9980     0.9100    -0.0390 ca         1 B9N      -0.060000
     33 H1          -1.9130    -0.5980    -0.4190 hc         1 B9N       0.045700
     34 H3          -4.2160    -1.5470     1.3310 hc         1 B9N       0.028200
     35 H4          -4.3870    -0.9700    -0.3200 hc         1 B9N       0.028200
     36 H5          -2.8900    -2.7340    -1.1350 hc         1 B9N       0.033700
     37 H6          -2.7370    -3.3560     0.5870 hc         1 B9N       0.033700
     38 H8          -3.7930     0.3280     2.7090 ha         1 B9N       0.145000
     39 H9          -4.4650     2.5970     3.3660 ha         1 B9N       0.088000
     40 H10         -3.9270     4.5340     1.9010 ha         1 B9N       0.083000
     41 H11         -2.7480     4.1920    -0.2240 ha         1 B9N       0.114000
     42 H12         -0.1400    -0.4410    -2.5370 ha         1 B9N       0.128500
     43 H13          0.3270     2.9290     0.1460 ha         1 B9N       0.128500
     44 H14          2.6070     2.1730     0.6950 ha         1 B9N       0.102000
     45 H15          2.1440    -1.1810    -2.0040 ha         1 B9N       0.102000
     46 H16          3.5050    -2.1490    -0.3700 ha         1 B9N       0.127000
     47 H17          5.8030    -2.8910     0.1590 ha         1 B9N       0.109500
     48 H18          9.8740    -1.0760     1.1070 h1         1 B9N       0.030033
     49 H19          9.1740     0.1460     0.0240 h1         1 B9N       0.030033
     50 H20          8.7660     0.1490     1.7620 h1         1 B9N       0.030033
     51 H21          7.0670     1.2370     0.4420 ha         1 B9N       0.109500
     52 H22          4.7940     1.9760    -0.1020 ha         1 B9N       0.127000
@<TRIPOS>BOND
     1     1     2 2   
     2     2     3 2   
     3     2     4 1   
     4     2    19 1   
     5     4     5 ar  
     6     4    18 ar  
     7     5     6 1   
     8     5    15 ar  
     9     6     7 1   
    10     6    10 1   
    11     6    33 1   
    12     7     8 1   
    13     7     9 1   
    14    10    11 1   
    15    10    34 1   
    16    10    35 1   
    17    11    12 1   
    18    11    36 1   
    19    11    37 1   
    20    12    13 1   
    21    12    14 1   
    22    15    16 ar  
    23    15    38 1   
    24    16    17 ar  
    25    16    39 1   
    26    17    18 ar  
    27    17    40 1   
    28    18    41 1   
    29    19    20 ar  
    30    19    21 ar  
    31    20    24 ar  
    32    20    42 1   
    33    21    22 ar  
    34    21    43 1   
    35    22    23 ar  
    36    22    44 1   
    37    23    24 ar  
    38    23    25 1   
    39    24    45 1   
    40    25    26 ar  
    41    25    32 ar  
    42    26    27 ar  
    43    26    46 1   
    44    27    28 ar  
    45    27    47 1   
    46    28    29 1   
    47    28    31 ar  
    48    29    30 1   
    49    30    48 1   
    50    30    49 1   
    51    30    50 1   
    52    31    32 ar  
    53    31    51 1   
    54    32    52 1   
@<TRIPOS>SUBSTRUCTURE
     1 B9N         1 TEMP              0 ****  ****    0 ROOT
