@<TRIPOS>MOLECULE
B9O
   46    47     1     0     0
SMALL
abcg2


@<TRIPOS>ATOM
      1 N            1.7640     7.2830    16.2500 n7         1 B9O      -0.868400
      2 CA           2.6000     8.3940    15.7780 c3         1 B9O       0.112500
      3 C            2.0300     9.7150    16.3050 c          1 B9O       0.560100
      4 O            1.0470    10.2480    15.7810 o          1 B9O      -0.625100
      5 CB           2.7290     8.4170    14.2470 c3         1 B9O      -0.047700
      6 CG1          3.3080     7.1010    13.7300 c3         1 B9O      -0.086100
      7 CG2          3.5900     9.5970    13.7890 c3         1 B9O      -0.086100
      8 CAA         -0.7870     8.7110    18.2440 ca         1 B9O      -0.082000
      9 CAB         -1.4930     7.5310    18.0840 ca         1 B9O      -0.118000
     10 CAC         -1.4410     6.5240    19.0590 ca         1 B9O      -0.106000
     11 CAD         -0.6830     6.6900    20.2060 ca         1 B9O      -0.084000
     12 CAE          0.0270     7.8790    20.3650 ca         1 B9O      -0.159000
     13 CAF         -0.0070     8.9060    19.3930 ca         1 B9O      -0.069800
     14 CAH          1.4130     9.8500    20.9640 cc         1 B9O      -0.131400
     15 CAI          0.8100    10.0410    19.7630 cd         1 B9O      -0.066400
     16 CAJ          0.9290    11.2840    18.9250 c3         1 B9O      -0.023200
     17 CAK          2.2050    11.4450    18.0580 c3         1 B9O       0.120700
     18 CAL          3.4050    12.0370    18.7840 c3         1 B9O       0.144600
     19 CAV          2.1090     6.7910    17.5820 c3         1 B9O       0.143100
     20 NAM          2.6280    10.2210    17.3960 ns         1 B9O      -0.493900
     21 SAG          1.0530     8.3190    21.7010 ss         1 B9O       0.033400
     22 H1           0.7890     7.5600    16.2270 hn         1 B9O       0.428000
     23 H3           3.6000     8.2430    16.1950 h1         1 B9O       0.054700
     24 H4           1.7210     8.5420    13.8390 hc         1 B9O       0.067700
     25 H5           3.3500     7.1060    12.6380 hc         1 B9O       0.035533
     26 H6           4.3270     6.9570    14.1030 hc         1 B9O       0.035533
     27 H7           2.7070     6.2520    14.0500 hc         1 B9O       0.035533
     28 H8           3.6780     9.6050    12.7010 hc         1 B9O       0.035533
     29 H9           3.1680    10.5550    14.0980 hc         1 B9O       0.035533
     30 H10          4.5980     9.5190    14.2050 hc         1 B9O       0.035533
     31 H12         -2.0880     7.3800    17.1930 ha         1 B9O       0.117000
     32 H13         -1.9970     5.6060    18.9130 ha         1 B9O       0.114000
     33 H15         -0.6400     5.9140    20.9600 ha         1 B9O       0.120000
     34 H16          2.0820    10.5290    21.4670 h4         1 B9O       0.220000
     35 H18          0.0750    11.3210    18.2490 hc         1 B9O       0.058200
     36 H19          0.8610    12.1680    19.5620 hc         1 B9O       0.058200
     37 H20          1.9460    12.1650    17.2780 h1         1 B9O       0.069700
     38 H21          4.1460    12.3450    18.0400 h1         1 B9O       0.033200
     39 H22          3.0820    12.9230    19.3390 h1         1 B9O       0.033200
     40 H23          1.3650     6.0590    17.8940 h1         1 B9O       0.035367
     41 H24          3.0830     6.2980    17.5430 h1         1 B9O       0.035367
     42 H25          2.1510     7.5700    18.3520 h1         1 B9O       0.035367
     43 H26          3.4050     9.7270    17.8060 hn         1 B9O       0.328500
     44 H27          4.8540    11.3670    19.9190 ho         1 B9O       0.445000
     45 OAU          3.9750    11.0650    19.6640 oh         1 B9O      -0.670000
     46 H11         -0.8180     9.4730    17.4770 ha         1 B9O       0.134000
@<TRIPOS>BOND
     1     1     2 1   
     2     1    19 1   
     3     1    22 1   
     4     2     3 1   
     5     2     5 1   
     6     2    23 1   
     7     3     4 2   
     8     3    20 1   
     9     5     6 1   
    10     5     7 1   
    11     5    24 1   
    12     6    25 1   
    13     6    26 1   
    14     6    27 1   
    15     7    28 1   
    16     7    29 1   
    17     7    30 1   
    18     8     9 ar  
    19     8    13 ar  
    20     8    46 1   
    21     9    10 ar  
    22     9    31 1   
    23    10    11 ar  
    24    10    32 1   
    25    11    12 ar  
    26    11    33 1   
    27    12    13 ar  
    28    12    21 1   
    29    13    15 1   
    30    14    15 2   
    31    14    21 1   
    32    14    34 1   
    33    15    16 1   
    34    16    17 1   
    35    16    35 1   
    36    16    36 1   
    37    17    18 1   
    38    17    20 1   
    39    17    37 1   
    40    18    38 1   
    41    18    39 1   
    42    18    45 1   
    43    19    40 1   
    44    19    41 1   
    45    19    42 1   
    46    20    43 1   
    47    44    45 1   
@<TRIPOS>SUBSTRUCTURE
     1 B9O         1 TEMP              0 ****  ****    0 ROOT
