@<TRIPOS>MOLECULE
B9O
   46    47     1     0     0
SMALL
No Charge or Current Charge


@<TRIPOS>ATOM
      1 N            1.7190     7.0530    15.8430 n7         1 B9O      -0.868400
      2 CA           2.5640     8.2800    15.6730 c3         1 B9O       0.112500
      3 C            1.8850     9.5760    16.2540 c          1 B9O       0.560100
      4 O            0.8730    10.0730    15.7730 o          1 B9O      -0.625100
      5 CB           2.9680     8.4610    14.1740 c3         1 B9O      -0.047700
      6 CG1          3.7180     7.2260    13.6070 c3         1 B9O      -0.086100
      7 CG2          3.8140     9.7400    13.9440 c3         1 B9O      -0.086100
      8 CAA         -0.9370     8.7160    18.5140 ca         1 B9O      -0.082000
      9 CAB         -1.6790     7.5190    18.4900 ca         1 B9O      -0.118000
     10 CAC         -1.5210     6.5640    19.5170 ca         1 B9O      -0.106000
     11 CAD         -0.6220     6.8050    20.5730 ca         1 B9O      -0.084000
     12 CAE          0.1080     8.0040    20.5810 ca         1 B9O      -0.159000
     13 CAF         -0.0390     8.9400    19.5760 ca         1 B9O      -0.069800
     14 CAH          1.5710     9.9940    20.9560 cc         1 B9O      -0.131400
     15 CAI          0.8260    10.0900    19.7940 cd         1 B9O      -0.066400
     16 CAJ          0.8890    11.2960    18.8780 c3         1 B9O      -0.023200
     17 CAK          2.1620    11.4040    17.9880 c3         1 B9O       0.120700
     18 CAL          3.3960    12.0200    18.7120 c3         1 B9O       0.144600
     19 CAV          1.6430     6.5180    17.2170 c3         1 B9O       0.143100
     20 NAM          2.5230    10.1350    17.3400 ns         1 B9O      -0.493900
     21 SAG          1.2850     8.4690    21.8320 ss         1 B9O       0.033400
     22 H1           0.7670     7.2810    15.5260 hn         1 B9O       0.428000
     23 H3           3.5030     8.1430    16.2290 h1         1 B9O       0.054700
     24 H4           2.0450     8.5760    13.5910 hc         1 B9O       0.067700
     25 H5           3.9970     7.3890    12.5590 hc         1 B9O       0.035533
     26 H6           4.6350     7.0320    14.1770 hc         1 B9O       0.035533
     27 H7           3.0930     6.3270    13.6440 hc         1 B9O       0.035533
     28 H8           4.1010     9.8300    12.8890 hc         1 B9O       0.035533
     29 H9           3.2540    10.6450    14.2080 hc         1 B9O       0.035533
     30 H10          4.7310     9.7150    14.5450 hc         1 B9O       0.035533
     31 H12         -2.3740     7.3290    17.6760 ha         1 B9O       0.117000
     32 H13         -2.0960     5.6410    19.4940 ha         1 B9O       0.114000
     33 H15         -0.4960     6.0740    21.3690 ha         1 B9O       0.120000
     34 H16          2.2800    10.7050    21.3610 h4         1 B9O       0.220000
     35 H18          0.0160    11.3110    18.2180 hc         1 B9O       0.058200
     36 H19          0.7970    12.2120    19.4740 hc         1 B9O       0.058200
     37 H20          1.9100    12.1140    17.1880 h1         1 B9O       0.069700
     38 H21          4.0400    12.4790    17.9500 h1         1 B9O       0.033200
     39 H22          3.0680    12.8250    19.3840 h1         1 B9O       0.033200
     40 H23          0.9650     5.6550    17.2610 h1         1 B9O       0.035367
     41 H24          2.6320     6.1910    17.5630 h1         1 B9O       0.035367
     42 H25          1.2750     7.2770    17.9170 h1         1 B9O       0.035367
     43 H26          3.3350     9.6510    17.7050 hn         1 B9O       0.328500
     44 H27          4.9400    11.4800    19.8050 ho         1 B9O       0.445000
     45 OAU          4.1510    11.0270    19.4330 oh         1 B9O      -0.670000
     46 H11         -1.0600     9.4410    17.7150 ha         1 B9O       0.134000
@<TRIPOS>BOND
     1     1     2 1   
     2     1    19 1   
     3     1    22 1   
     4     2     3 1   
     5     2     5 1   
     6     2    23 1   
     7     3     4 2   
     8     3    20 1   
     9     5     6 1   
    10     5     7 1   
    11     5    24 1   
    12     6    25 1   
    13     6    26 1   
    14     6    27 1   
    15     7    28 1   
    16     7    29 1   
    17     7    30 1   
    18     8     9 ar  
    19     8    13 ar  
    20     8    46 1   
    21     9    10 ar  
    22     9    31 1   
    23    10    11 ar  
    24    10    32 1   
    25    11    12 ar  
    26    11    33 1   
    27    12    13 ar  
    28    12    21 1   
    29    13    15 1   
    30    14    15 2   
    31    14    21 1   
    32    14    34 1   
    33    15    16 1   
    34    16    17 1   
    35    16    35 1   
    36    16    36 1   
    37    17    18 1   
    38    17    20 1   
    39    17    37 1   
    40    18    38 1   
    41    18    39 1   
    42    18    45 1   
    43    19    40 1   
    44    19    41 1   
    45    19    42 1   
    46    20    43 1   
    47    44    45 1   
@<TRIPOS>SUBSTRUCTURE
     1 B9O         1 TEMP              0 ****  ****    0 ROOT
