@<TRIPOS>MOLECULE
B9P
   55    60     1     0     0
SMALL
abcg2


@<TRIPOS>ATOM
      1 O11         -0.9410    -1.1470     1.5800 o          1 B9P      -0.526100
      2 C11         -0.9910    -0.0940     0.9780 c          1 B9P       0.585700
      3 C10          0.2800     0.6680     0.6660 c3         1 B9P      -0.175400
      4 C9           1.5480    -0.1500     0.8540 c3         1 B9P      -0.067400
      5 C8           2.8030     0.6780     0.6100 c3         1 B9P      -0.077400
      6 C7           4.0680    -0.1640     0.7270 c3         1 B9P      -0.059400
      7 C2           5.3520     0.6380     0.6270 c5         1 B9P       0.071300
      8 S1           5.5610     1.4600    -0.9880 ss         1 B9P      -0.404000
      9 C6           7.2760     1.8260    -0.5380 c5         1 B9P       0.037600
     10 C5           7.8160     0.5560     0.1230 c5         1 B9P       0.105700
     11 N1           8.2800    -0.4170    -0.8300 ns         1 B9P      -0.528900
     12 C4           6.6330    -0.1880     0.8140 c5         1 B9P       0.100700
     13 N2           6.6070    -1.4500     0.1200 ns         1 B9P      -0.517900
     14 C3           7.6130    -1.5970    -0.7820 c          1 B9P       0.618000
     15 O3           7.8600    -2.6000    -1.4340 o          1 B9P      -0.580000
     16 C1          -2.2880     0.5030     0.5460 ca         1 B9P      -0.161600
     17 C16         -2.3400     1.8870     0.3670 ca         1 B9P      -0.076000
     18 C15         -3.5110     2.5400     0.0470 ca         1 B9P      -0.114000
     19 C14         -4.6920     1.8230    -0.1290 ca         1 B9P      -0.005000
     20 C30         -5.9190     2.4840    -0.4560 ca         1 B9P      -0.108000
     21 C31         -7.0620     1.7870    -0.6350 ca         1 B9P      -0.080000
     22 C32         -7.0810     0.3620    -0.5050 ca         1 B9P      -0.041000
     23 C19         -8.2530    -0.3730    -0.6890 ca         1 B9P      -0.088000
     24 C18         -8.2510    -1.7540    -0.5650 ca         1 B9P      -0.109000
     25 C17         -7.0790    -2.4260    -0.2570 ca         1 B9P      -0.085000
     26 C34         -5.8880    -1.7230    -0.0650 ca         1 B9P      -0.038000
     27 C33         -5.8780    -0.3150    -0.1840 ca         1 B9P      -0.013000
     28 C13         -4.6710     0.4130     0.0150 ca         1 B9P      -0.031000
     29 C35         -4.6590    -2.3820     0.2390 ca         1 B9P      -0.090000
     30 C36         -3.5110    -1.6950     0.4400 ca         1 B9P      -0.098000
     31 C12         -3.4640    -0.2610     0.3560 ca         1 B9P       0.030000
     32 H1           0.2280     1.0620    -0.3520 hc         1 B9P       0.062700
     33 H2           0.3090     1.5500     1.3170 hc         1 B9P       0.062700
     34 H3           1.5810    -0.5640     1.8640 hc         1 B9P       0.053200
     35 H4           1.5370    -1.0040     0.1700 hc         1 B9P       0.053200
     36 H5           2.7550     1.1370    -0.3820 hc         1 B9P       0.045200
     37 H6           2.8410     1.5040     1.3280 hc         1 B9P       0.045200
     38 H7           4.0700    -0.6760     1.6960 hc         1 B9P       0.053700
     39 H8           4.0590    -0.9450    -0.0380 hc         1 B9P       0.053700
     40 H9           5.3460     1.4200     1.3940 h1         1 B9P       0.067700
     41 H10          7.8500     2.1050    -1.4220 h1         1 B9P       0.077200
     42 H11          7.3040     2.6610     0.1640 h1         1 B9P       0.077200
     43 H12          8.6040     0.8170     0.8350 h1         1 B9P       0.062700
     44 H13          9.1260    -0.3050    -1.3620 hn         1 B9P       0.344500
     45 H14          6.8110    -0.3310     1.8840 h1         1 B9P       0.060700
     46 H15          6.1160    -2.2520     0.4770 hn         1 B9P       0.340500
     47 H16         -1.4490     2.4830     0.5020 ha         1 B9P       0.113000
     48 H17         -3.5150     3.6170    -0.0650 ha         1 B9P       0.118000
     49 H18         -5.9110     3.5620    -0.5570 ha         1 B9P       0.116000
     50 H19         -7.9840     2.2990    -0.8830 ha         1 B9P       0.116000
     51 H20         -9.1710     0.1480    -0.9350 ha         1 B9P       0.114000
     52 H21         -9.1670    -2.3090    -0.7130 ha         1 B9P       0.116000
     53 H22         -7.0790    -3.5050    -0.1660 ha         1 B9P       0.116000
     54 H23         -4.6550    -3.4630     0.3050 ha         1 B9P       0.116000
     55 H24         -2.6150    -2.2460     0.6680 ha         1 B9P       0.140000
@<TRIPOS>BOND
     1     1     2 2   
     2     2     3 1   
     3     2    16 1   
     4     3     4 1   
     5     3    32 1   
     6     3    33 1   
     7     4     5 1   
     8     4    34 1   
     9     4    35 1   
    10     5     6 1   
    11     5    36 1   
    12     5    37 1   
    13     6     7 1   
    14     6    38 1   
    15     6    39 1   
    16     7     8 1   
    17     7    12 1   
    18     7    40 1   
    19     8     9 1   
    20     9    10 1   
    21     9    41 1   
    22     9    42 1   
    23    10    11 1   
    24    10    12 1   
    25    10    43 1   
    26    11    14 1   
    27    11    44 1   
    28    12    13 1   
    29    12    45 1   
    30    13    14 1   
    31    13    46 1   
    32    14    15 2   
    33    16    17 ar  
    34    16    31 ar  
    35    17    18 ar  
    36    17    47 1   
    37    18    19 ar  
    38    18    48 1   
    39    19    20 ar  
    40    19    28 ar  
    41    20    21 ar  
    42    20    49 1   
    43    21    22 ar  
    44    21    50 1   
    45    22    23 ar  
    46    22    27 ar  
    47    23    24 ar  
    48    23    51 1   
    49    24    25 ar  
    50    24    52 1   
    51    25    26 ar  
    52    25    53 1   
    53    26    27 ar  
    54    26    29 ar  
    55    27    28 ar  
    56    28    31 ar  
    57    29    30 ar  
    58    29    54 1   
    59    30    31 ar  
    60    30    55 1   
@<TRIPOS>SUBSTRUCTURE
     1 B9P         1 TEMP              0 ****  ****    0 ROOT
