@<TRIPOS>MOLECULE
B9P
   55    60     1     0     0
SMALL
No Charge or Current Charge


@<TRIPOS>ATOM
      1 O11         -1.4630     0.6960     3.8260 o          1 B9P      -0.526100
      2 C11         -1.2240     1.2230     2.7460 c          1 B9P       0.585700
      3 C10          0.1900     1.7070     2.4030 c3         1 B9P      -0.175400
      4 C9           1.0420     0.5540     1.8220 c3         1 B9P      -0.067400
      5 C8           2.4700     0.9960     1.4340 c3         1 B9P      -0.077400
      6 C7           3.3220    -0.1560     0.8520 c3         1 B9P      -0.059400
      7 C2           4.7770     0.2470     0.4870 c5         1 B9P       0.071300
      8 S1           4.8210     1.4300    -0.9360 ss         1 B9P      -0.404000
      9 C6           6.6600     1.2180    -0.9690 c5         1 B9P       0.037600
     10 C5           6.9440    -0.3060    -0.7440 c5         1 B9P       0.105700
     11 N1           6.7660    -0.9200    -2.0620 ns         1 B9P      -0.528900
     12 C4           5.7430    -0.9270     0.0820 c5         1 B9P       0.100700
     13 N2           5.0550    -1.7350    -0.9320 ns         1 B9P      -0.517900
     14 C3           5.6610    -1.6950    -2.1390 c          1 B9P       0.618000
     15 O3           5.2820    -2.2800    -3.1350 o          1 B9P      -0.580000
     16 C1          -2.3070     1.4290     1.7210 ca         1 B9P      -0.161600
     17 C16         -2.6180     2.7470     1.3270 ca         1 B9P      -0.076000
     18 C15         -3.6270     2.9920     0.3840 ca         1 B9P      -0.114000
     19 C14         -4.3390     1.9230    -0.1820 ca         1 B9P      -0.005000
     20 C30         -5.3510     2.1750    -1.1260 ca         1 B9P      -0.108000
     21 C31         -6.0650     1.1100    -1.6990 ca         1 B9P      -0.080000
     22 C32         -5.7680    -0.2150    -1.3340 ca         1 B9P      -0.041000
     23 C19         -6.4800    -1.2840    -1.9100 ca         1 B9P      -0.088000
     24 C18         -6.1800    -2.6080    -1.5470 ca         1 B9P      -0.109000
     25 C17         -5.1680    -2.8680    -0.6070 ca         1 B9P      -0.085000
     26 C34         -4.4530    -1.8040    -0.0270 ca         1 B9P      -0.038000
     27 C33         -4.7520    -0.4730    -0.3870 ca         1 B9P      -0.013000
     28 C13         -4.0350     0.5970     0.1960 ca         1 B9P      -0.031000
     29 C35         -3.4380    -2.0610     0.9090 ca         1 B9P      -0.090000
     30 C36         -2.7240    -0.9990     1.4900 ca         1 B9P      -0.098000
     31 C12         -3.0170     0.3410     1.1490 ca         1 B9P       0.030000
     32 H1           0.1330     2.4850     1.6330 hc         1 B9P       0.062700
     33 H2           0.6750     2.0920     3.3080 hc         1 B9P       0.062700
     34 H3           1.1010    -0.2580     2.5580 hc         1 B9P       0.053200
     35 H4           0.5380     0.1450     0.9360 hc         1 B9P       0.053200
     36 H5           2.4050     1.8090     0.7010 hc         1 B9P       0.045200
     37 H6           2.9740     1.4030     2.3200 hc         1 B9P       0.045200
     38 H7           3.3530    -0.9690     1.5880 hc         1 B9P       0.053700
     39 H8           2.8100    -0.5560    -0.0320 hc         1 B9P       0.053700
     40 H9           5.2040     0.7620     1.3590 h1         1 B9P       0.067700
     41 H10          7.0840     1.5950    -1.9090 h1         1 B9P       0.077200
     42 H11          7.0920     1.8090    -0.1500 h1         1 B9P       0.077200
     43 H12          7.9320    -0.5040    -0.3060 h1         1 B9P       0.062700
     44 H13          7.3380    -0.7820    -2.8860 hn         1 B9P       0.344500
     45 H14          6.0750    -1.5230     0.9420 h1         1 B9P       0.060700
     46 H15          4.2130    -2.2820    -0.8130 hn         1 B9P       0.340500
     47 H16         -2.0830     3.5890     1.7620 ha         1 B9P       0.113000
     48 H17         -3.8550     4.0160     0.0970 ha         1 B9P       0.118000
     49 H18         -5.5870     3.1960    -1.4170 ha         1 B9P       0.116000
     50 H19         -6.8460     1.3170    -2.4280 ha         1 B9P       0.116000
     51 H20         -7.2640    -1.0920    -2.6390 ha         1 B9P       0.114000
     52 H21         -6.7310    -3.4320    -1.9940 ha         1 B9P       0.116000
     53 H22         -4.9410    -3.8960    -0.3330 ha         1 B9P       0.116000
     54 H23         -3.1970    -3.0840     1.1880 ha         1 B9P       0.116000
     55 H24         -1.9410    -1.2410     2.2040 ha         1 B9P       0.140000
@<TRIPOS>BOND
     1     1     2 2   
     2     2     3 1   
     3     2    16 1   
     4     3     4 1   
     5     3    32 1   
     6     3    33 1   
     7     4     5 1   
     8     4    34 1   
     9     4    35 1   
    10     5     6 1   
    11     5    36 1   
    12     5    37 1   
    13     6     7 1   
    14     6    38 1   
    15     6    39 1   
    16     7     8 1   
    17     7    12 1   
    18     7    40 1   
    19     8     9 1   
    20     9    10 1   
    21     9    41 1   
    22     9    42 1   
    23    10    11 1   
    24    10    12 1   
    25    10    43 1   
    26    11    14 1   
    27    11    44 1   
    28    12    13 1   
    29    12    45 1   
    30    13    14 1   
    31    13    46 1   
    32    14    15 2   
    33    16    17 ar  
    34    16    31 ar  
    35    17    18 ar  
    36    17    47 1   
    37    18    19 ar  
    38    18    48 1   
    39    19    20 ar  
    40    19    28 ar  
    41    20    21 ar  
    42    20    49 1   
    43    21    22 ar  
    44    21    50 1   
    45    22    23 ar  
    46    22    27 ar  
    47    23    24 ar  
    48    23    51 1   
    49    24    25 ar  
    50    24    52 1   
    51    25    26 ar  
    52    25    53 1   
    53    26    27 ar  
    54    26    29 ar  
    55    27    28 ar  
    56    28    31 ar  
    57    29    30 ar  
    58    29    54 1   
    59    30    31 ar  
    60    30    55 1   
@<TRIPOS>SUBSTRUCTURE
     1 B9P         1 TEMP              0 ****  ****    0 ROOT
