@<TRIPOS>MOLECULE
B9Q
   59    63     1     0     0
SMALL
No Charge or Current Charge


@<TRIPOS>ATOM
      1 C1          -2.1040    -3.6240     2.7260 c3         1 B9Q      -0.099100
      2 C2          -2.6510    -2.4230     1.9270 c3         1 B9Q       0.115700
      3 C7          -2.1990    -0.8970    -1.2550 ca         1 B9Q      -0.034000
      4 C8          -2.7550     0.1030    -2.0640 ca         1 B9Q      -0.194000
      5 C9          -3.2150     1.2920    -1.4810 ca         1 B9Q       0.591300
      6 C11         -2.6180     0.5580     0.6300 ca         1 B9Q       0.421900
      7 C13         -4.2590     3.4900    -1.8000 c3         1 B9Q       0.158900
      8 C15          0.5590    -0.5140     1.5770 ca         1 B9Q       0.068100
      9 C16          1.0810    -0.6720     0.2590 ca         1 B9Q      -0.101000
     10 C19          2.4860     0.8250     2.1310 ca         1 B9Q      -0.217900
     11 C20          1.2770     0.2410     2.5320 ca         1 B9Q      -0.041000
     12 C21          3.4510     1.6360     2.8370 cc         1 B9Q       0.362800
     13 N23          4.1650     1.3780     0.8420 na         1 B9Q       0.167800
     14 C24          4.9750     1.4830    -0.2880 ca         1 B9Q       0.011800
     15 C27          6.6090     1.6910    -2.5710 ca         1 B9Q       0.169000
     16 C32         -4.9700    -2.1560     0.9780 c          1 B9Q       0.637100
     17 C34         -5.9290    -2.7470    -0.0240 cx         1 B9Q      -0.248700
     18 C35         -6.4370    -1.8570    -1.1420 cx         1 B9Q      -0.096900
     19 C4          -1.5560    -1.7180     1.0720 c3         1 B9Q       0.213600
     20 C6          -2.1290    -0.6630     0.1280 ca         1 B9Q      -0.219300
     21 N10         -3.1470     1.5240    -0.1540 nb         1 B9Q      -0.753000
     22 O14         -0.6330    -1.0840     1.9810 os         1 B9Q      -0.357100
     23 C17          2.3060    -0.0670    -0.1040 ca         1 B9Q      -0.113000
     24 C18          2.9740     0.6820     0.8730 ca         1 B9Q      -0.035200
     25 N22          4.4880     1.9800     2.0560 nd         1 B9Q      -0.506100
     26 C25          4.5020     2.1420    -1.4420 ca         1 B9Q      -0.086000
     27 C26          5.3190     2.2440    -2.5830 ca         1 B9Q      -0.141000
     28 C28          7.0890     1.0360    -1.4260 ca         1 B9Q      -0.141000
     29 C29          6.2730     0.9320    -0.2840 ca         1 B9Q      -0.086000
     30 F30          7.3920     1.7890    -3.6660 f          1 B9Q      -0.175000
     31 N31         -3.7930    -2.8520     1.1060 ns         1 B9Q      -0.505900
     32 O33         -5.2260    -1.1500     1.6210 o          1 B9Q      -0.600100
     33 C36         -5.4660    -2.9700    -1.4510 cx         1 B9Q      -0.096900
     34 H1          -1.2950    -3.3110     3.3970 hc         1 B9Q       0.045033
     35 H2          -2.8970    -4.0700     3.3390 hc         1 B9Q       0.045033
     36 H3          -1.7140    -4.3960     2.0520 hc         1 B9Q       0.045033
     37 H4          -3.0120    -1.6870     2.6590 h1         1 B9Q       0.097700
     38 H5          -1.8400    -1.8280    -1.6900 ha         1 B9Q       0.113000
     39 H6          -2.8330    -0.0350    -3.1380 ha         1 B9Q       0.136000
     40 H7          -2.5860     0.7730     1.6980 h4         1 B9Q       0.030100
     41 H8          -5.0780     3.3160    -1.0890 h1         1 B9Q       0.047367
     42 H9          -3.4680     4.0540    -1.2890 h1         1 B9Q       0.047367
     43 H10         -4.6460     4.1130    -2.6170 h1         1 B9Q       0.047367
     44 H11          0.5570    -1.2600    -0.4870 ha         1 B9Q       0.120000
     45 H12          0.8970     0.3640     3.5440 ha         1 B9Q       0.136000
     46 H13          3.4600     1.9890     3.8600 h4         1 B9Q       0.055800
     47 H14         -6.6290    -3.4690     0.3850 hc         1 B9Q       0.080700
     48 H15         -7.4700    -1.9810    -1.4610 hc         1 B9Q       0.081700
     49 H16         -6.0660    -0.8350    -1.1950 hc         1 B9Q       0.081700
     50 H17         -1.0420    -2.4910     0.4850 h1         1 B9Q       0.038700
     51 H18          2.7130    -0.1840    -1.1060 ha         1 B9Q       0.126000
     52 H19          3.5030     2.5740    -1.4520 ha         1 B9Q       0.135000
     53 H20          4.9550     2.7510    -3.4740 ha         1 B9Q       0.137500
     54 H21          8.0890     0.6110    -1.4240 ha         1 B9Q       0.137500
     55 H22          6.6450     0.4250     0.6040 ha         1 B9Q       0.135000
     56 H23         -3.6970    -3.6810     0.5340 hn         1 B9Q       0.306500
     57 H24         -4.4500    -2.6890    -1.7200 hc         1 B9Q       0.081700
     58 H25         -5.8470    -3.8420    -1.9790 hc         1 B9Q       0.081700
     59 O12         -3.7520     2.2440    -2.3160 os         1 B9Q      -0.462300
@<TRIPOS>BOND
     1     1     2 1   
     2     1    34 1   
     3     1    35 1   
     4     1    36 1   
     5     2    19 1   
     6     2    31 1   
     7     2    37 1   
     8     3     4 ar  
     9     3    20 ar  
    10     3    38 1   
    11     4     5 ar  
    12     4    39 1   
    13     5    21 ar  
    14     5    59 1   
    15     6    20 ar  
    16     6    21 ar  
    17     6    40 1   
    18     7    41 1   
    19     7    42 1   
    20     7    43 1   
    21     7    59 1   
    22     8     9 ar  
    23     8    11 ar  
    24     8    22 1   
    25     9    23 ar  
    26     9    44 1   
    27    10    11 ar  
    28    10    12 1   
    29    10    24 ar  
    30    11    45 1   
    31    12    25 2   
    32    12    46 1   
    33    13    14 1   
    34    13    24 1   
    35    13    25 1   
    36    14    26 ar  
    37    14    29 ar  
    38    15    27 ar  
    39    15    28 ar  
    40    15    30 1   
    41    16    17 1   
    42    16    31 1   
    43    16    32 2   
    44    17    18 1   
    45    17    33 1   
    46    17    47 1   
    47    18    33 1   
    48    18    48 1   
    49    18    49 1   
    50    19    20 1   
    51    19    22 1   
    52    19    50 1   
    53    23    24 ar  
    54    23    51 1   
    55    26    27 ar  
    56    26    52 1   
    57    27    53 1   
    58    28    29 ar  
    59    28    54 1   
    60    29    55 1   
    61    31    56 1   
    62    33    57 1   
    63    33    58 1   
@<TRIPOS>SUBSTRUCTURE
     1 B9Q         1 TEMP              0 ****  ****    0 ROOT
