@<TRIPOS>MOLECULE
B9Q
   59    63     1     0     0
SMALL
abcg2


@<TRIPOS>ATOM
      1 C1          -1.6350    -3.5700     2.2720 c3         1 B9Q      -0.099100
      2 C2          -2.3810    -2.4010     1.6450 c3         1 B9Q       0.115700
      3 C7          -2.4210    -0.3590    -1.1690 ca         1 B9Q      -0.034000
      4 C8          -3.1920     0.6180    -1.7590 ca         1 B9Q      -0.194000
      5 C9          -3.7270     1.6100    -0.9310 ca         1 B9Q       0.591300
      6 C11         -2.7830     0.6910     0.9200 ca         1 B9Q       0.421900
      7 C13         -5.0350     3.5630    -0.6840 c3         1 B9Q       0.158900
      8 C15          0.5940    -0.3350     1.3580 ca         1 B9Q       0.068100
      9 C16          1.6190    -1.1580     0.8420 ca         1 B9Q      -0.101000
     10 C19          1.9190     1.5830     0.8970 ca         1 B9Q      -0.217900
     11 C20          0.7270     1.0330     1.3830 ca         1 B9Q      -0.041000
     12 C21          2.4220     2.9000     0.7230 cc         1 B9Q       0.362800
     13 N23          3.9420     1.5910     0.0010 na         1 B9Q       0.167800
     14 C24          5.1830     1.2560    -0.5720 ca         1 B9Q       0.011800
     15 C27          7.6100     0.6170    -1.6930 ca         1 B9Q       0.169000
     16 C32         -4.6280    -2.3810     0.6140 c          1 B9Q       0.637100
     17 C34         -5.4080    -2.9080    -0.5380 cx         1 B9Q      -0.248700
     18 C35         -6.9080    -2.9380    -0.4360 cx         1 B9Q      -0.096900
     19 C4          -1.4390    -1.4380     0.9010 c3         1 B9Q       0.213600
     20 C6          -2.2020    -0.3420     0.2080 ca         1 B9Q      -0.219300
     21 N10         -3.5220     1.6490     0.3690 nb         1 B9Q      -0.753000
     22 O14         -0.5320    -0.9190     1.8650 os         1 B9Q      -0.357100
     23 C17          2.7960    -0.6350     0.3610 ca         1 B9Q      -0.113000
     24 C18          2.9390     0.7560     0.4050 ca         1 B9Q      -0.035200
     25 N22          3.6150     2.8780     0.1900 nd         1 B9Q      -0.506100
     26 C25          5.6610     1.9870    -1.6550 ca         1 B9Q      -0.086000
     27 C26          6.8880     1.6730    -2.2160 ca         1 B9Q      -0.141000
     28 C28          7.1540    -0.1230    -0.6200 ca         1 B9Q      -0.141000
     29 C29          5.9350     0.2100    -0.0500 ca         1 B9Q      -0.086000
     30 F30          8.7930     0.3040    -2.2430 f          1 B9Q      -0.175000
     31 N31         -3.3790    -2.8800     0.7150 ns         1 B9Q      -0.505900
     32 O33         -5.0890    -1.5630     1.3970 o          1 B9Q      -0.600100
     33 C36         -6.2560    -1.9210    -1.3000 cx         1 B9Q      -0.096900
     34 H1          -0.9130    -3.2250     3.0100 hc         1 B9Q       0.045033
     35 H2          -2.3340    -4.2370     2.7750 hc         1 B9Q       0.045033
     36 H3          -1.0960    -4.1470     1.5180 hc         1 B9Q       0.045033
     37 H4          -2.9030    -1.8430     2.4240 h1         1 B9Q       0.097700
     38 H5          -1.9860    -1.1410    -1.7800 ha         1 B9Q       0.113000
     39 H6          -3.3800     0.6260    -2.8240 ha         1 B9Q       0.136000
     40 H7          -2.6500     0.7600     1.9950 h4         1 B9Q       0.030100
     41 H8          -5.7080     3.1460     0.0660 h1         1 B9Q       0.047367
     42 H9          -4.2660     4.1470    -0.1760 h1         1 B9Q       0.047367
     43 H10         -5.5970     4.2140    -1.3490 h1         1 B9Q       0.047367
     44 H11          1.4780    -2.2320     0.8380 ha         1 B9Q       0.120000
     45 H12         -0.0650     1.6620     1.7700 ha         1 B9Q       0.136000
     46 H13          1.9500     3.8380     0.9730 h4         1 B9Q       0.055800
     47 H14         -4.9410    -3.6940    -1.1210 hc         1 B9Q       0.080700
     48 H15         -7.4110    -3.7710    -0.9100 hc         1 B9Q       0.081700
     49 H16         -7.3510    -2.6110     0.4950 hc         1 B9Q       0.081700
     50 H17         -0.8890    -2.0200     0.1450 h1         1 B9Q       0.038700
     51 H18          3.5660    -1.2860    -0.0300 ha         1 B9Q       0.126000
     52 H19          5.0760     2.8010    -2.0610 ha         1 B9Q       0.135000
     53 H20          7.2690     2.2360    -3.0580 ha         1 B9Q       0.137500
     54 H21          7.7440    -0.9350    -0.2180 ha         1 B9Q       0.137500
     55 H22          5.5880    -0.3390     0.8150 ha         1 B9Q       0.135000
     56 H23         -3.0710    -3.5310     0.0090 hn         1 B9Q       0.306500
     57 H24         -6.2390    -0.8930    -0.9600 hc         1 B9Q       0.081700
     58 H25         -6.3010    -2.0410    -2.3740 hc         1 B9Q       0.081700
     59 O12         -4.4740     2.5530    -1.5100 os         1 B9Q      -0.462300
@<TRIPOS>BOND
     1     1     2 1   
     2     1    34 1   
     3     1    35 1   
     4     1    36 1   
     5     2    19 1   
     6     2    31 1   
     7     2    37 1   
     8     3     4 ar  
     9     3    20 ar  
    10     3    38 1   
    11     4     5 ar  
    12     4    39 1   
    13     5    21 ar  
    14     5    59 1   
    15     6    20 ar  
    16     6    21 ar  
    17     6    40 1   
    18     7    41 1   
    19     7    42 1   
    20     7    43 1   
    21     7    59 1   
    22     8     9 ar  
    23     8    11 ar  
    24     8    22 1   
    25     9    23 ar  
    26     9    44 1   
    27    10    11 ar  
    28    10    12 1   
    29    10    24 ar  
    30    11    45 1   
    31    12    25 2   
    32    12    46 1   
    33    13    14 1   
    34    13    24 1   
    35    13    25 1   
    36    14    26 ar  
    37    14    29 ar  
    38    15    27 ar  
    39    15    28 ar  
    40    15    30 1   
    41    16    17 1   
    42    16    31 1   
    43    16    32 2   
    44    17    18 1   
    45    17    33 1   
    46    17    47 1   
    47    18    33 1   
    48    18    48 1   
    49    18    49 1   
    50    19    20 1   
    51    19    22 1   
    52    19    50 1   
    53    23    24 ar  
    54    23    51 1   
    55    26    27 ar  
    56    26    52 1   
    57    27    53 1   
    58    28    29 ar  
    59    28    54 1   
    60    29    55 1   
    61    31    56 1   
    62    33    57 1   
    63    33    58 1   
@<TRIPOS>SUBSTRUCTURE
     1 B9Q         1 TEMP              0 ****  ****    0 ROOT
