@<TRIPOS>MOLECULE
B9R
   47    48     1     0     0
SMALL
bcc


@<TRIPOS>ATOM
      1 N            2.0920    -2.0550    -0.7580 n7         1 B9R      -0.792200
      2 CA           2.0290    -0.9220     0.1310 c3         1 B9R       0.097500
      3 C            1.3020     0.2750    -0.4990 c          1 B9R       0.638100
      4 O            1.1990     0.3960    -1.7120 o          1 B9R      -0.620100
      5 CB           3.4340    -0.4980     0.6150 c3         1 B9R      -0.044700
      6 CG1          4.0840    -1.6250     1.4080 c3         1 B9R      -0.086600
      7 CG2          4.3370    -0.0480    -0.5290 c3         1 B9R      -0.086600
      8 CAA         -1.8770    -2.2770     1.5330 ca         1 B9R      -0.163000
      9 CAB         -2.5310    -3.0290     0.5430 ca         1 B9R      -0.114000
     10 CAC         -2.9650    -2.4440    -0.6300 ca         1 B9R      -0.145000
     11 CAD         -2.7290    -1.0800    -0.7950 ca         1 B9R      -0.047200
     12 CAE         -2.0750    -0.3030     0.1870 ca         1 B9R      -0.089800
     13 CAF         -1.6440    -0.9270     1.3640 ca         1 B9R      -0.086000
     14 CAH         -2.6240     1.0210    -1.5280 cc         1 B9R      -0.095100
     15 CAI         -2.0200     1.0420    -0.3030 cd         1 B9R      -0.140400
     16 CAJ         -1.3900     2.2200     0.3630 c3         1 B9R      -0.013200
     17 CAK          0.1020     2.3720     0.0240 c3         1 B9R       0.111700
     18 CAL          0.7220     3.5990     0.6700 c3         1 B9R       0.123400
     19 CAU          0.8300    -2.7630    -0.8770 c3         1 B9R       0.140100
     20 NAG         -3.0450    -0.2460    -1.8270 na         1 B9R      -0.170400
     21 NAM          0.8430     1.1820     0.3800 ns         1 B9R      -0.559900
     22 H1           2.3780    -1.7360    -1.6750 hn         1 B9R       0.372800
     23 H3           1.4620    -1.2300     1.0180 h1         1 B9R       0.064700
     24 H4           3.2990     0.3510     1.2940 hc         1 B9R       0.038700
     25 H5           5.0590    -1.3190     1.7900 hc         1 B9R       0.036867
     26 H6           3.4710    -1.9140     2.2640 hc         1 B9R       0.036867
     27 H7           4.2240    -2.5090     0.7860 hc         1 B9R       0.036867
     28 H8           3.9420     0.8210    -1.0580 hc         1 B9R       0.036867
     29 H9           5.3220     0.2260    -0.1480 hc         1 B9R       0.036867
     30 H10          4.4850    -0.8460    -1.2600 hc         1 B9R       0.036867
     31 H12         -2.7000    -4.0870     0.7040 ha         1 B9R       0.128000
     32 H13         -3.4690    -3.0240    -1.3930 ha         1 B9R       0.131000
     33 H14         -1.1370    -0.3630     2.1370 ha         1 B9R       0.128000
     34 H15         -2.7910     1.8300    -2.2220 h4         1 B9R       0.161000
     35 H16         -1.8970     3.1390     0.0560 hc         1 B9R       0.053700
     36 H17         -1.5150     2.1480     1.4460 hc         1 B9R       0.053700
     37 H18          0.1950     2.4960    -1.0550 h1         1 B9R       0.082700
     38 H19          1.7580     3.6940     0.3230 h1         1 B9R       0.028700
     39 H20          0.1810     4.4880     0.3210 h1         1 B9R       0.028700
     40 H21          0.5880    -3.2500     0.0680 h1         1 B9R       0.034700
     41 H22         -0.0290    -2.1330    -1.1390 h1         1 B9R       0.034700
     42 H23          0.9230    -3.5410    -1.6350 h1         1 B9R       0.034700
     43 H24         -3.5390    -0.5060    -2.6630 hn         1 B9R       0.299700
     44 H25          0.9490     0.9850     1.3630 hn         1 B9R       0.319500
     45 H26          1.1230     4.2010     2.4720 ho         1 B9R       0.406000
     46 OAV          0.6570     3.4620     2.0720 oh         1 B9R      -0.605800
     47 H11         -1.5460    -2.7690     2.4390 ha         1 B9R       0.128000
@<TRIPOS>BOND
     1     1     2 1   
     2     1    19 1   
     3     1    22 1   
     4     2     3 1   
     5     2     5 1   
     6     2    23 1   
     7     3     4 2   
     8     3    21 1   
     9     5     6 1   
    10     5     7 1   
    11     5    24 1   
    12     6    25 1   
    13     6    26 1   
    14     6    27 1   
    15     7    28 1   
    16     7    29 1   
    17     7    30 1   
    18     8     9 ar  
    19     8    13 ar  
    20     8    47 1   
    21     9    10 ar  
    22     9    31 1   
    23    10    11 ar  
    24    10    32 1   
    25    11    12 ar  
    26    11    20 1   
    27    12    13 ar  
    28    12    15 1   
    29    13    33 1   
    30    14    15 2   
    31    14    20 1   
    32    14    34 1   
    33    15    16 1   
    34    16    17 1   
    35    16    35 1   
    36    16    36 1   
    37    17    18 1   
    38    17    21 1   
    39    17    37 1   
    40    18    38 1   
    41    18    39 1   
    42    18    46 1   
    43    19    40 1   
    44    19    41 1   
    45    19    42 1   
    46    20    43 1   
    47    21    44 1   
    48    45    46 1   
@<TRIPOS>SUBSTRUCTURE
     1 B9R         1 TEMP              0 ****  ****    0 ROOT
