@<TRIPOS>MOLECULE
B9R
   47    48     1     0     0
SMALL
No Charge or Current Charge


@<TRIPOS>ATOM
      1 N            2.0610    -2.0720    -0.7100 n7         1 B9R      -0.847400
      2 CA           2.1770    -0.8390     0.1390 c3         1 B9R       0.097500
      3 C            1.4770     0.4250    -0.4780 c          1 B9R       0.571100
      4 O            1.4890     0.6800    -1.6790 o          1 B9R      -0.620100
      5 CB           3.6710    -0.5480     0.4900 c3         1 B9R      -0.044700
      6 CG1          4.2720    -1.6310     1.4190 c3         1 B9R      -0.086600
      7 CG2          4.5750    -0.3060    -0.7450 c3         1 B9R      -0.086600
      8 CAA         -2.0770    -2.2840     1.6320 ca         1 B9R      -0.145000
      9 CAB         -2.6540    -3.0730     0.6070 ca         1 B9R      -0.096000
     10 CAC         -2.9900    -2.4950    -0.6370 ca         1 B9R      -0.127000
     11 CAD         -2.7350    -1.1290    -0.8120 ca         1 B9R      -0.047200
     12 CAE         -2.1790    -0.3690     0.1770 ca         1 B9R      -0.089800
     13 CAF         -1.8300    -0.9090     1.4230 ca         1 B9R      -0.068000
     14 CAH         -2.5590     0.9920    -1.6580 cc         1 B9R      -0.145100
     15 CAI         -2.0660     0.9700    -0.3580 cd         1 B9R      -0.140400
     16 CAJ         -1.5030     2.1630     0.3800 c3         1 B9R      -0.013200
     17 CAK          0.0010     2.4030     0.0940 c3         1 B9R       0.111700
     18 CAL          0.5580     3.6650     0.8080 c3         1 B9R       0.146600
     19 CAU          0.6920    -2.5990    -0.8760 c3         1 B9R       0.140100
     20 NAG         -2.9690    -0.3340    -1.9200 na         1 B9R      -0.220700
     21 NAM          0.8000     1.2140     0.4290 ns         1 B9R      -0.492900
     22 H1           2.4260    -1.8370    -1.6420 hn         1 B9R       0.428000
     23 H3           1.6620    -1.0250     1.0930 h1         1 B9R       0.064700
     24 H4           3.6770     0.3850     1.0690 hc         1 B9R       0.038700
     25 H5           5.2810    -1.3470     1.7410 hc         1 B9R       0.036867
     26 H6           3.6550    -1.7580     2.3170 hc         1 B9R       0.036867
     27 H7           4.3370    -2.5980     0.9080 hc         1 B9R       0.036867
     28 H8           4.1980     0.5210    -1.3570 hc         1 B9R       0.036867
     29 H9           5.5930    -0.0450    -0.4290 hc         1 B9R       0.036867
     30 H10          4.6380    -1.2020    -1.3750 hc         1 B9R       0.036867
     31 H12         -2.8390    -4.1320     0.7780 ha         1 B9R       0.110000
     32 H13         -3.4330    -3.0920    -1.4310 ha         1 B9R       0.113000
     33 H14         -1.3880    -0.2950     2.2030 ha         1 B9R       0.110000
     34 H15         -2.6440     1.7980    -2.3800 h4         1 B9R       0.211000
     35 H16         -2.0630     3.0630     0.0990 hc         1 B9R       0.053700
     36 H17         -1.6530     2.0390     1.4590 hc         1 B9R       0.053700
     37 H18          0.0910     2.5900    -0.9850 h1         1 B9R       0.082700
     38 H19          1.5700     3.8630     0.4290 h1         1 B9R       0.028700
     39 H20         -0.0650     4.5310     0.5470 h1         1 B9R       0.028700
     40 H21          0.2590    -2.8690     0.0960 h1         1 B9R       0.034700
     41 H22          0.0360    -1.8570    -1.3500 h1         1 B9R       0.034700
     42 H23          0.6970    -3.4990    -1.5050 h1         1 B9R       0.034700
     43 H24         -3.3780    -0.6600    -2.7900 hn         1 B9R       0.350000
     44 H25          0.8530     0.9470     1.4040 hn         1 B9R       0.319500
     45 H26          0.9690     4.3110     2.6190 ho         1 B9R       0.445000
     46 OAV          0.5960     3.4860     2.2350 oh         1 B9R      -0.668000
     47 H11         -1.8210    -2.7390     2.5860 ha         1 B9R       0.110000
@<TRIPOS>BOND
     1     1     2 1   
     2     1    19 1   
     3     1    22 1   
     4     2     3 1   
     5     2     5 1   
     6     2    23 1   
     7     3     4 2   
     8     3    21 1   
     9     5     6 1   
    10     5     7 1   
    11     5    24 1   
    12     6    25 1   
    13     6    26 1   
    14     6    27 1   
    15     7    28 1   
    16     7    29 1   
    17     7    30 1   
    18     8     9 ar  
    19     8    13 ar  
    20     8    47 1   
    21     9    10 ar  
    22     9    31 1   
    23    10    11 ar  
    24    10    32 1   
    25    11    12 ar  
    26    11    20 1   
    27    12    13 ar  
    28    12    15 1   
    29    13    33 1   
    30    14    15 2   
    31    14    20 1   
    32    14    34 1   
    33    15    16 1   
    34    16    17 1   
    35    16    35 1   
    36    16    36 1   
    37    17    18 1   
    38    17    21 1   
    39    17    37 1   
    40    18    38 1   
    41    18    39 1   
    42    18    46 1   
    43    19    40 1   
    44    19    41 1   
    45    19    42 1   
    46    20    43 1   
    47    21    44 1   
    48    45    46 1   
@<TRIPOS>SUBSTRUCTURE
     1 B9R         1 TEMP              0 ****  ****    0 ROOT
