@<TRIPOS>MOLECULE
B9S
   86    90     1     0     0
SMALL
abcg2


@<TRIPOS>ATOM
      1 C1           7.6140     2.8770    -1.8810 ca         1 B9S      -0.156500
      2 C2           7.5410     4.1710    -2.3630 ca         1 B9S       0.172000
      3 C3           6.6410     5.0880    -1.8630 ca         1 B9S      -0.156500
      4 C4           5.7850     4.6880    -0.8430 ca         1 B9S      -0.069500
      5 C5           5.8320     3.3980    -0.3260 ca         1 B9S      -0.108300
      6 C6           6.7520     2.4980    -0.8630 ca         1 B9S      -0.069500
      7 C15          4.9260     2.9780     0.8000 c3         1 B9S       0.212100
      8 C21          3.0570    -0.2180     1.3110 ca         1 B9S      -0.031300
      9 C23          1.8040    -0.3080     0.7270 ca         1 B9S      -0.095000
     10 C24          1.2520    -1.5220     0.3110 ca         1 B9S      -0.084500
     11 C25          2.0020    -2.6770     0.5050 ca         1 B9S      -0.105000
     12 C26          3.2520    -2.6130     1.0980 ca         1 B9S      -0.067000
     13 C27          3.7930    -1.3980     1.4960 ca         1 B9S      -0.167300
     14 C34          5.1420    -1.3840     2.1520 c3         1 B9S       0.356300
     15 C19          3.5640     1.1640     1.6460 c3         1 B9S       0.200100
     16 C42         -0.0690    -1.5570    -0.3150 cc         1 B9S       0.322500
     17 C44         -0.9580    -2.6410    -0.4900 cc         1 B9S      -0.224300
     18 C45         -2.0410    -2.0990    -1.1400 cd         1 B9S      -0.147300
     19 C53         -3.2640    -2.8320    -1.5590 c6         1 B9S      -0.047100
     20 C54         -2.9950    -4.3270    -1.3910 c6         1 B9S       0.206800
     21 C56         -0.9220    -4.0830    -0.0940 c6         1 B9S       0.281100
     22 C66         -3.2980    -3.1870     1.9750 c3         1 B9S      -0.370100
     23 C71         -3.6790     0.7070    -0.8320 c3         1 B9S       0.157300
     24 C74         -4.5360     1.7900    -1.4800 c3         1 B9S       0.134800
     25 C78         -6.0740     3.5760    -1.1030 c6         1 B9S       0.169300
     26 C79         -7.1150     4.1590    -0.1610 c6         1 B9S      -0.067400
     27 C80         -8.3130     3.2270     0.0620 c6         1 B9S      -0.047000
     28 C81         -7.7570     1.8520     0.4520 c6         1 B9S      -0.067400
     29 C82         -6.6930     1.3420    -0.5080 c6         1 B9S       0.169300
     30 C89         -9.1720     3.1280    -1.2000 c3         1 B9S      -0.084100
     31 C91         -9.1770     3.7700     1.1980 c3         1 B9S      -0.084100
     32 F13          8.3750     4.5450    -3.3490 f          1 B9S      -0.182000
     33 F36          5.7000    -2.6000     2.1890 f          1 B9S      -0.112667
     34 F38          6.0160    -0.5840     1.5290 f          1 B9S      -0.112667
     35 F40          5.0750    -0.9620     3.4270 f          1 B9S      -0.112667
     36 N17          4.3140     1.6940     0.5230 n7         1 B9S      -0.860400
     37 N46         -1.7750    -0.7890    -1.3130 na         1 B9S       0.164800
     38 N47         -0.5960    -0.4480    -0.8170 nd         1 B9S      -0.505800
     39 N55         -2.2710    -4.6480    -0.1620 n3         1 B9S      -0.730500
     40 N78         -5.5960     2.2870    -0.6310 n3         1 B9S      -0.705600
     41 O64         -2.2540    -5.5750     2.1600 o          1 B9S      -0.534000
     42 O68         -4.4210    -5.3160     0.9190 o          1 B9S      -0.534000
     43 O74         -3.0650     1.1290     0.3550 oh         1 B9S      -0.624000
     44 S62         -3.1010    -4.8070     1.2590 s6         1 B9S       1.197100
     45 H1           8.3290     2.1770    -2.2940 ha         1 B9S       0.131000
     46 H2           6.5990     6.0940    -2.2610 ha         1 B9S       0.131000
     47 H3           5.0700     5.3980    -0.4460 ha         1 B9S       0.125500
     48 H4           6.7920     1.4870    -0.4790 ha         1 B9S       0.125500
     49 H5           5.5180     2.8730     1.7150 h1         1 B9S       0.038200
     50 H6           4.1970     3.7780     1.0000 h1         1 B9S       0.038200
     51 H7           1.2310     0.6020     0.5950 ha         1 B9S       0.129000
     52 H8           1.6360    -3.6420     0.1830 ha         1 B9S       0.121000
     53 H9           3.7990    -3.5350     1.2340 ha         1 B9S       0.135000
     54 H10          2.7020     1.7890     1.9220 h1         1 B9S       0.044700
     55 H11          4.2130     1.1600     2.5210 h1         1 B9S       0.044700
     56 H12         -4.1360    -2.5260    -0.9730 hc         1 B9S       0.064700
     57 H13         -3.5140    -2.6310    -2.6040 hc         1 B9S       0.064700
     58 H14         -3.9160    -4.9000    -1.4350 h1         1 B9S       0.081200
     59 H15         -2.3650    -4.6810    -2.2090 h1         1 B9S       0.081200
     60 H16         -0.2850    -4.6700    -0.7630 h1         1 B9S       0.077200
     61 H17         -0.5160    -4.2260     0.9080 h1         1 B9S       0.077200
     62 H18         -3.8890    -2.5590     1.3140 h1         1 B9S       0.102700
     63 H19         -3.8200    -3.3150     2.9230 h1         1 B9S       0.102700
     64 H20         -2.3240    -2.7370     2.1540 h1         1 B9S       0.102700
     65 H21         -3.1730    -0.2080    -2.7260 h1         1 B9S       0.073200
     66 H22         -2.0360     1.0340    -2.2190 h1         1 B9S       0.073200
     67 H23         -4.3090    -0.1410    -0.5480 h1         1 B9S       0.076700
     68 H24         -3.8790     2.6310    -1.7300 h1         1 B9S       0.033200
     69 H25         -4.9230     1.4110    -2.4440 h1         1 B9S       0.033200
     70 H26         -6.4800     3.5080    -2.1270 h1         1 B9S       0.028450
     71 H27         -5.2230     4.2610    -1.1580 h1         1 B9S       0.028450
     72 H28         -6.6360     4.3610     0.8030 hc         1 B9S       0.049700
     73 H29         -7.4530     5.1240    -0.5510 hc         1 B9S       0.049700
     74 H30         -7.3190     1.9170     1.4540 hc         1 B9S       0.049700
     75 H31         -8.5680     1.1190     0.5110 hc         1 B9S       0.049700
     76 H32         -6.3150     0.3910    -0.1260 h1         1 B9S       0.028450
     77 H33         -7.1380     1.1170    -1.4940 h1         1 B9S       0.028450
     78 H34         -8.6240     2.7340    -2.0560 hc         1 B9S       0.033867
     79 H35        -10.0280     2.4710    -1.0310 hc         1 B9S       0.033867
     80 H36         -9.5570     4.1100    -1.4850 hc         1 B9S       0.033867
     81 H37         -9.5720     4.7590     0.9540 hc         1 B9S       0.033867
     82 H38        -10.0290     3.1140     1.3940 hc         1 B9S       0.033867
     83 H39         -8.6040     3.8580     2.1230 hc         1 B9S       0.033867
     84 H40          3.7000     1.7810    -0.2780 hn         1 B9S       0.417000
     85 H43         -2.5300     1.9080     0.1680 ho         1 B9S       0.447000
     86 C69         -2.6580     0.2110    -1.8610 c3         1 B9S       0.036600
@<TRIPOS>BOND
     1     1     2 ar  
     2     1     6 ar  
     3     1    45 1   
     4     2     3 ar  
     5     2    32 1   
     6     3     4 ar  
     7     3    46 1   
     8     4     5 ar  
     9     4    47 1   
    10     5     6 ar  
    11     5     7 1   
    12     6    48 1   
    13     7    36 1   
    14     7    49 1   
    15     7    50 1   
    16     8     9 ar  
    17     8    13 ar  
    18     8    15 1   
    19     9    10 ar  
    20     9    51 1   
    21    10    11 ar  
    22    10    16 1   
    23    11    12 ar  
    24    11    52 1   
    25    12    13 ar  
    26    12    53 1   
    27    13    14 1   
    28    14    33 1   
    29    14    34 1   
    30    14    35 1   
    31    15    36 1   
    32    15    54 1   
    33    15    55 1   
    34    16    17 1   
    35    16    38 2   
    36    17    18 2   
    37    17    21 1   
    38    18    19 1   
    39    18    37 1   
    40    19    20 1   
    41    19    56 1   
    42    19    57 1   
    43    20    39 1   
    44    20    58 1   
    45    20    59 1   
    46    21    39 1   
    47    21    60 1   
    48    21    61 1   
    49    22    44 1   
    50    22    62 1   
    51    22    63 1   
    52    22    64 1   
    53    23    24 1   
    54    23    43 1   
    55    23    67 1   
    56    23    86 1   
    57    24    40 1   
    58    24    68 1   
    59    24    69 1   
    60    25    26 1   
    61    25    40 1   
    62    25    70 1   
    63    25    71 1   
    64    26    27 1   
    65    26    72 1   
    66    26    73 1   
    67    27    28 1   
    68    27    30 1   
    69    27    31 1   
    70    28    29 1   
    71    28    74 1   
    72    28    75 1   
    73    29    40 1   
    74    29    76 1   
    75    29    77 1   
    76    30    78 1   
    77    30    79 1   
    78    30    80 1   
    79    31    81 1   
    80    31    82 1   
    81    31    83 1   
    82    36    84 1   
    83    37    38 1   
    84    37    86 1   
    85    39    44 1   
    86    41    44 2   
    87    42    44 2   
    88    43    85 1   
    89    65    86 1   
    90    66    86 1   
@<TRIPOS>SUBSTRUCTURE
     1 B9S         1 TEMP              0 ****  ****    0 ROOT
