@<TRIPOS>MOLECULE
B9S
   86    90     1     0     0
SMALL
No Charge or Current Charge


@<TRIPOS>ATOM
      1 C1           7.7010     3.5020    -1.6940 ca         1 B9S      -0.156500
      2 C2           7.0390     4.5030    -2.4200 ca         1 B9S       0.172000
      3 C3           5.7670     4.9440    -2.0220 ca         1 B9S      -0.156500
      4 C4           5.1530     4.3820    -0.8890 ca         1 B9S      -0.069500
      5 C5           5.8110     3.3750    -0.1520 ca         1 B9S      -0.108300
      6 C6           7.0880     2.9380    -0.5610 ca         1 B9S      -0.069500
      7 C15          5.1530     2.7650     1.0760 c3         1 B9S       0.212100
      8 C21          3.2940    -0.5670     1.3900 ca         1 B9S      -0.031300
      9 C23          2.0100    -0.5330     0.8080 ca         1 B9S      -0.095000
     10 C24          1.3480    -1.7020     0.3630 ca         1 B9S      -0.084500
     11 C25          2.0500    -2.9210     0.4740 ca         1 B9S      -0.105000
     12 C26          3.3300    -2.9750     1.0480 ca         1 B9S      -0.067000
     13 C27          3.9730    -1.8100     1.5210 ca         1 B9S      -0.167300
     14 C34          5.3770    -1.9150     2.1540 c3         1 B9S       0.356300
     15 C19          3.8900     0.7660     1.8550 c3         1 B9S       0.200100
     16 C42          0.0060    -1.5890    -0.2610 cc         1 B9S       0.322500
     17 C44         -0.9290    -2.6230    -0.5330 cc         1 B9S      -0.224300
     18 C45         -1.9820    -2.0570    -1.1740 cd         1 B9S      -0.147300
     19 C53         -3.2200    -2.8170    -1.5940 c6         1 B9S      -0.047100
     20 C54         -2.9770    -4.3430    -1.4270 c6         1 B9S       0.206800
     21 C56         -0.8740    -4.0850    -0.1470 c6         1 B9S       0.281100
     22 C66         -2.8710    -2.9760     1.9980 c3         1 B9S      -0.370100
     23 C71         -3.7420     0.7370    -1.0390 c3         1 B9S       0.157300
     24 C74         -4.6980     1.6900    -1.7990 c3         1 B9S       0.134800
     25 C78         -6.3460     3.5150    -1.6080 c6         1 B9S       0.169300
     26 C79         -7.2600     4.3170    -0.6460 c6         1 B9S      -0.067400
     27 C80         -8.3250     3.4200     0.0510 c6         1 B9S      -0.047000
     28 C81         -7.5860     2.2190     0.7110 c6         1 B9S      -0.067400
     29 C82         -6.6630     1.4690    -0.2840 c6         1 B9S       0.169300
     30 C89         -9.4040     2.9290    -0.9680 c3         1 B9S      -0.084100
     31 C91         -9.0780     4.2420     1.1400 c3         1 B9S      -0.084100
     32 F13          7.6270     5.0440    -3.5090 f          1 B9S      -0.182000
     33 F36          5.8970    -3.1620     2.0830 f          1 B9S      -0.112667
     34 F38          6.2750    -1.1020     1.5530 f          1 B9S      -0.112667
     35 F40          5.3570    -1.5890     3.4670 f          1 B9S      -0.112667
     36 N17          4.5760     1.4530     0.7440 n7         1 B9S      -0.860400
     37 N46         -1.6720    -0.7020    -1.2560 na         1 B9S       0.164800
     38 N47         -0.4310    -0.4180    -0.7060 nd         1 B9S      -0.505800
     39 N55         -2.2430    -4.6660    -0.1660 n3         1 B9S      -0.730500
     40 N78         -5.6670     2.3900    -0.9090 n3         1 B9S      -0.705600
     41 O64         -2.5320    -5.6170     2.1940 o          1 B9S      -0.534000
     42 O68         -4.5480    -4.7170     0.9590 o          1 B9S      -0.534000
     43 O74         -3.3770     1.4070     0.1730 oh         1 B9S      -0.624000
     44 S62         -3.1300    -4.6080     1.3130 s6         1 B9S       1.197100
     45 H1           8.6840     3.1640    -2.0090 ha         1 B9S       0.131000
     46 H2           5.2610     5.7200    -2.5910 ha         1 B9S       0.131000
     47 H3           4.1670     4.7260    -0.5840 ha         1 B9S       0.125500
     48 H4           7.6000     2.1580     0.0000 ha         1 B9S       0.125500
     49 H5           5.9040     2.6630     1.8720 h1         1 B9S       0.038200
     50 H6           4.3730     3.4450     1.4470 h1         1 B9S       0.038200
     51 H7           1.5130     0.4300     0.7210 ha         1 B9S       0.129000
     52 H8           1.6450    -3.8460     0.0860 ha         1 B9S       0.121000
     53 H9           3.8200    -3.9440     1.1100 ha         1 B9S       0.135000
     54 H10          3.0760     1.3960     2.2400 h1         1 B9S       0.044700
     55 H11          4.5780     0.6100     2.6940 h1         1 B9S       0.044700
     56 H12         -4.0800    -2.5150    -0.9820 hc         1 B9S       0.064700
     57 H13         -3.4860    -2.5970    -2.6370 hc         1 B9S       0.064700
     58 H14         -3.9330    -4.8840    -1.4940 h1         1 B9S       0.081200
     59 H15         -2.3790    -4.6830    -2.2860 h1         1 B9S       0.081200
     60 H16         -0.2470    -4.6220    -0.8730 h1         1 B9S       0.077200
     61 H17         -0.4080    -4.2230     0.8400 h1         1 B9S       0.077200
     62 H18         -3.2270    -2.2430     1.2690 h1         1 B9S       0.102700
     63 H19         -3.4520    -2.9190     2.9230 h1         1 B9S       0.102700
     64 H20         -1.8030    -2.8540     2.2000 h1         1 B9S       0.102700
     65 H21         -2.8160    -0.0030    -2.8530 h1         1 B9S       0.073200
     66 H22         -1.8730     1.2440    -2.0260 h1         1 B9S       0.073200
     67 H23         -4.3000    -0.1790    -0.8040 h1         1 B9S       0.076700
     68 H24         -4.0810     2.4370    -2.3170 h1         1 B9S       0.033200
     69 H25         -5.2300     1.1230    -2.5750 h1         1 B9S       0.033200
     70 H26         -6.9390     3.1380    -2.4530 h1         1 B9S       0.028450
     71 H27         -5.5980     4.2030    -2.0260 h1         1 B9S       0.028450
     72 H28         -6.6280     4.8010     0.1120 hc         1 B9S       0.049700
     73 H29         -7.7490     5.1300    -1.1990 hc         1 B9S       0.049700
     74 H30         -6.9750     2.5760     1.5510 hc         1 B9S       0.049700
     75 H31         -8.3110     1.5140     1.1390 hc         1 B9S       0.049700
     76 H32         -6.1550     0.6660     0.2670 h1         1 B9S       0.028450
     77 H33         -7.2730     0.9850    -1.0600 h1         1 B9S       0.028450
     78 H34         -8.9740     2.3350    -1.7820 hc         1 B9S       0.033867
     79 H35        -10.1590     2.3020    -0.4770 hc         1 B9S       0.033867
     80 H36         -9.9300     3.7740    -1.4290 hc         1 B9S       0.033867
     81 H37         -9.5980     5.1040     0.7050 hc         1 B9S       0.033867
     82 H38         -9.8270     3.6300     1.6580 hc         1 B9S       0.033867
     83 H39         -8.3880     4.6260     1.9010 hc         1 B9S       0.033867
     84 H40          3.8990     1.5880    -0.0140 hn         1 B9S       0.417000
     85 H43         -4.1130     2.0570     0.2830 ho         1 B9S       0.447000
     86 C69         -2.4940     0.3540    -1.8680 c3         1 B9S       0.036600
@<TRIPOS>BOND
     1     1     2 ar  
     2     1     6 ar  
     3     1    45 1   
     4     2     3 ar  
     5     2    32 1   
     6     3     4 ar  
     7     3    46 1   
     8     4     5 ar  
     9     4    47 1   
    10     5     6 ar  
    11     5     7 1   
    12     6    48 1   
    13     7    36 1   
    14     7    49 1   
    15     7    50 1   
    16     8     9 ar  
    17     8    13 ar  
    18     8    15 1   
    19     9    10 ar  
    20     9    51 1   
    21    10    11 ar  
    22    10    16 1   
    23    11    12 ar  
    24    11    52 1   
    25    12    13 ar  
    26    12    53 1   
    27    13    14 1   
    28    14    33 1   
    29    14    34 1   
    30    14    35 1   
    31    15    36 1   
    32    15    54 1   
    33    15    55 1   
    34    16    17 1   
    35    16    38 2   
    36    17    18 2   
    37    17    21 1   
    38    18    19 1   
    39    18    37 1   
    40    19    20 1   
    41    19    56 1   
    42    19    57 1   
    43    20    39 1   
    44    20    58 1   
    45    20    59 1   
    46    21    39 1   
    47    21    60 1   
    48    21    61 1   
    49    22    44 1   
    50    22    62 1   
    51    22    63 1   
    52    22    64 1   
    53    23    24 1   
    54    23    43 1   
    55    23    67 1   
    56    23    86 1   
    57    24    40 1   
    58    24    68 1   
    59    24    69 1   
    60    25    26 1   
    61    25    40 1   
    62    25    70 1   
    63    25    71 1   
    64    26    27 1   
    65    26    72 1   
    66    26    73 1   
    67    27    28 1   
    68    27    30 1   
    69    27    31 1   
    70    28    29 1   
    71    28    74 1   
    72    28    75 1   
    73    29    40 1   
    74    29    76 1   
    75    29    77 1   
    76    30    78 1   
    77    30    79 1   
    78    30    80 1   
    79    31    81 1   
    80    31    82 1   
    81    31    83 1   
    82    36    84 1   
    83    37    38 1   
    84    37    86 1   
    85    39    44 1   
    86    41    44 2   
    87    42    44 2   
    88    43    85 1   
    89    65    86 1   
    90    66    86 1   
@<TRIPOS>SUBSTRUCTURE
     1 B9S         1 TEMP              0 ****  ****    0 ROOT
