@<TRIPOS>MOLECULE
B9T
   48    50     1     0     0
SMALL
bcc


@<TRIPOS>ATOM
      1 C1           0.3020     3.0980    -0.7030 c3         1 B9T      -0.110100
      2 C2          -0.5650     1.8500    -0.7430 c3         1 B9T       0.099700
      3 C7          -1.0100    -1.3910    -0.8710 ca         1 B9T       0.471700
      4 C9          -2.7550    -2.4490     0.1220 ca         1 B9T       0.709300
      5 C11         -1.8710    -0.6500     1.1780 ca         1 B9T       0.471700
      6 C12         -3.7630    -3.5220     0.0730 cx         1 B9T      -0.196000
      7 C13         -5.1620    -3.2400     0.5610 cx         1 B9T      -0.104900
      8 C14         -4.2740    -4.1270     1.3540 cx         1 B9T      -0.104900
      9 C16          2.3730     0.4570     0.3180 ca         1 B9T       0.196100
     10 C19          4.8580     0.6710     1.5700 ca         1 B9T      -0.054000
     11 C20          4.6810    -0.2480     0.5350 ca         1 B9T      -0.028000
     12 C21          3.4500    -0.3510    -0.0780 ca         1 B9T      -0.070900
     13 N25         -1.9140     2.1710    -0.3260 ns         1 B9T      -0.564900
     14 C4          -0.0260     0.7170     0.1550 c3         1 B9T       0.205400
     15 C6          -0.9500    -0.4640     0.1610 ca         1 B9T      -0.358900
     16 N8          -1.8920    -2.3780    -0.8890 nb         1 B9T      -0.706500
     17 N10         -2.7690    -1.6210     1.1630 nb         1 B9T      -0.706500
     18 O15          1.2330     0.2990    -0.3560 os         1 B9T      -0.311900
     19 C17          2.5710     1.3770     1.3470 ca         1 B9T      -0.224000
     20 C18          3.7990     1.4810     1.9710 ca         1 B9T      -0.039000
     21 BR2          3.2050    -1.5920    -1.4650 br         1 B9T      -0.057100
     22 C23          6.1260     0.7770     2.2110 cg         1 B9T       0.234800
     23 N24          7.1510     0.8630     2.7310 n1         1 B9T      -0.354800
     24 C26         -3.0070     1.7330    -0.9590 c          1 B9T       0.626100
     25 O27         -3.0130     1.0210    -1.9450 o          1 B9T      -0.560100
     26 C28         -4.3560     2.1710    -0.3650 c3         1 B9T       0.351600
     27 C29         -5.2740     1.0170    -0.0820 c3         1 B9T      -0.145100
     28 F30         -4.1600     2.9070     0.7690 f          1 B9T      -0.234800
     29 F31         -4.9230     3.0240    -1.2660 f          1 B9T      -0.234800
     30 H1           0.3530     3.5160     0.3050 hc         1 B9T       0.051033
     31 H2           1.3170     2.8890    -1.0360 hc         1 B9T       0.051033
     32 H3          -0.1110     3.8600    -1.3630 hc         1 B9T       0.051033
     33 H4          -0.6140     1.4760    -1.7680 h1         1 B9T       0.101700
     34 H5          -0.3240    -1.3430    -1.7090 h4         1 B9T       0.030100
     35 H6          -1.8890     0.0160     2.0360 h4         1 B9T       0.030100
     36 H7          -3.6650    -4.1810    -0.7800 hc         1 B9T       0.106700
     37 H8          -5.3600    -2.2450     0.9390 hc         1 B9T       0.078450
     38 H9          -5.9740    -3.6840     0.0000 hc         1 B9T       0.078450
     39 H10         -4.4660    -5.1920     1.3470 hc         1 B9T       0.078450
     40 H11         -3.8610    -3.7430     2.2770 hc         1 B9T       0.078450
     41 H12          5.5050    -0.8770     0.2260 ha         1 B9T       0.162000
     42 H13         -2.0190     2.7820     0.4710 hn         1 B9T       0.331500
     43 H14          0.0630     1.0870     1.1820 h1         1 B9T       0.055700
     44 H15          1.7760     2.0340     1.6670 ha         1 B9T       0.142000
     45 H16          3.9310     2.2010     2.7660 ha         1 B9T       0.148000
     46 H17         -4.8110     0.3240     0.6200 hc         1 B9T       0.074700
     47 H18         -6.2090     1.3750     0.3500 hc         1 B9T       0.074700
     48 H19         -5.4950     0.4750    -0.9990 hc         1 B9T       0.074700
@<TRIPOS>BOND
     1     1     2 1   
     2     1    30 1   
     3     1    31 1   
     4     1    32 1   
     5     2    13 1   
     6     2    14 1   
     7     2    33 1   
     8     3    15 ar  
     9     3    16 ar  
    10     3    34 1   
    11     4     6 1   
    12     4    16 ar  
    13     4    17 ar  
    14     5    15 ar  
    15     5    17 ar  
    16     5    35 1   
    17     6     7 1   
    18     6     8 1   
    19     6    36 1   
    20     7     8 1   
    21     7    37 1   
    22     7    38 1   
    23     8    39 1   
    24     8    40 1   
    25     9    12 ar  
    26     9    18 1   
    27     9    19 ar  
    28    10    11 ar  
    29    10    20 ar  
    30    10    22 1   
    31    11    12 ar  
    32    11    41 1   
    33    12    21 1   
    34    13    24 1   
    35    13    42 1   
    36    14    15 1   
    37    14    18 1   
    38    14    43 1   
    39    19    20 ar  
    40    19    44 1   
    41    20    45 1   
    42    22    23 3   
    43    24    25 2   
    44    24    26 1   
    45    26    27 1   
    46    26    28 1   
    47    26    29 1   
    48    27    46 1   
    49    27    47 1   
    50    27    48 1   
@<TRIPOS>SUBSTRUCTURE
     1 B9T         1 TEMP              0 ****  ****    0 ROOT
