@<TRIPOS>MOLECULE
B9T
   48    50     1     0     0
SMALL
No Charge or Current Charge


@<TRIPOS>ATOM
      1 C1           0.5010     2.8780    -0.0510 c3         1 B9T      -0.110100
      2 C2          -0.3640     1.6160    -0.2530 c3         1 B9T       0.099700
      3 C7          -1.3240    -1.4220    -0.5220 ca         1 B9T       0.143400
      4 C9          -3.0000    -2.5360     0.5830 ca         1 B9T       0.183300
      5 C11         -1.8290    -0.9650     1.7810 ca         1 B9T       0.143400
      6 C12         -4.1010    -3.5550     0.5430 cx         1 B9T      -0.196000
      7 C13         -5.2060    -3.4930    -0.4900 cx         1 B9T      -0.104900
      8 C14         -5.5170    -3.2160     0.9600 cx         1 B9T      -0.104900
      9 C16          2.5000     0.2940     0.4690 ca         1 B9T       0.196100
     10 C19          5.1250     1.2250     0.9410 ca         1 B9T      -0.054000
     11 C20          4.8520     0.4220    -0.1820 ca         1 B9T      -0.010000
     12 C21          3.5450    -0.0440    -0.4130 ca         1 B9T      -0.070900
     13 N25         -1.7840     1.9780    -0.1000 ns         1 B9T      -0.497900
     14 C4           0.0150     0.4090     0.6700 c3         1 B9T       0.228600
     15 C6          -1.0500    -0.6810     0.6440 ca         1 B9T      -0.228300
     16 N8          -2.3000    -2.3500    -0.5560 nb         1 B9T      -0.180500
     17 N10         -2.8050    -1.8930     1.7540 nb         1 B9T      -0.180500
     18 O15          1.2360    -0.1960     0.1980 os         1 B9T      -0.335100
     19 C17          2.7810     1.0880     1.6020 ca         1 B9T      -0.206000
     20 C18          4.0880     1.5530     1.8340 ca         1 B9T      -0.021000
     21 Br2          3.2020    -1.1300    -1.9570 br         1 B9T      -0.057100
     22 C23          6.4590     1.7010     1.1790 cg         1 B9T       0.324000
     23 N24          7.5470     2.0830     1.3630 n1         1 B9T      -0.444000
     24 C26         -2.7860     1.6660    -1.0020 c          1 B9T       0.559100
     25 O27         -2.5360     1.1510    -2.0850 o          1 B9T      -0.560100
     26 C28         -4.2370     2.0150    -0.5560 c3         1 B9T       0.109000
     27 C29         -5.0500     0.7400    -0.2400 c3         1 B9T      -0.145100
     28 F30         -4.2440     2.8120     0.5420 f          1 B9T      -0.113500
     29 F31         -4.8770     2.7060    -1.5300 f          1 B9T      -0.113500
     30 H1           0.4770     3.2080     0.9940 hc         1 B9T       0.051033
     31 H2           1.5420     2.6950    -0.3380 hc         1 B9T       0.051033
     32 H3           0.1300     3.6980    -0.6780 hc         1 B9T       0.051033
     33 H4          -0.2070     1.2840    -1.2890 h1         1 B9T       0.101700
     34 H5          -0.7680    -1.2610    -1.4450 h4         1 B9T       0.030100
     35 H6          -1.6830    -0.4350     2.7210 h4         1 B9T       0.030100
     36 H7          -3.7410    -4.5460     0.8100 hc         1 B9T       0.106700
     37 H8          -5.2200    -2.6500    -1.1780 hc         1 B9T       0.078450
     38 H9          -5.5580    -4.4310    -0.9150 hc         1 B9T       0.078450
     39 H10         -6.0780    -3.9680     1.5110 hc         1 B9T       0.078450
     40 H11         -5.7390    -2.1890     1.2400 hc         1 B9T       0.078450
     41 H12          5.6480     0.1590    -0.8750 ha         1 B9T       0.144000
     42 H13         -2.0780     2.4240     0.7620 hn         1 B9T       0.331500
     43 H14          0.1040     0.7550     1.7060 h1         1 B9T       0.055700
     44 H15          2.0090     1.3470     2.3190 ha         1 B9T       0.124000
     45 H16          4.2930     2.1670     2.7100 ha         1 B9T       0.130000
     46 H17         -4.5860     0.1820     0.5820 hc         1 B9T       0.074700
     47 H18         -6.0750     0.9950     0.0540 hc         1 B9T       0.074700
     48 H19         -5.0970     0.0820    -1.1160 hc         1 B9T       0.074700
@<TRIPOS>BOND
     1     1     2 1   
     2     1    30 1   
     3     1    31 1   
     4     1    32 1   
     5     2    13 1   
     6     2    14 1   
     7     2    33 1   
     8     3    15 ar  
     9     3    16 ar  
    10     3    34 1   
    11     4     6 1   
    12     4    16 ar  
    13     4    17 ar  
    14     5    15 ar  
    15     5    17 ar  
    16     5    35 1   
    17     6     7 1   
    18     6     8 1   
    19     6    36 1   
    20     7     8 1   
    21     7    37 1   
    22     7    38 1   
    23     8    39 1   
    24     8    40 1   
    25     9    12 ar  
    26     9    18 1   
    27     9    19 ar  
    28    10    11 ar  
    29    10    20 ar  
    30    10    22 1   
    31    11    12 ar  
    32    11    41 1   
    33    12    21 1   
    34    13    24 1   
    35    13    42 1   
    36    14    15 1   
    37    14    18 1   
    38    14    43 1   
    39    19    20 ar  
    40    19    44 1   
    41    20    45 1   
    42    22    23 3   
    43    24    25 2   
    44    24    26 1   
    45    26    27 1   
    46    26    28 1   
    47    26    29 1   
    48    27    46 1   
    49    27    47 1   
    50    27    48 1   
@<TRIPOS>SUBSTRUCTURE
     1 B9T         1 TEMP              0 ****  ****    0 ROOT
