@<TRIPOS>MOLECULE
B9U
   43    44     1     0     0
SMALL
bcc


@<TRIPOS>ATOM
      1 CAA          1.6290     0.8400     1.4120 ca         1 B9U      -0.092000
      2 CAB          1.9750     2.1740     1.4980 ca         1 B9U      -0.159000
      3 CAC          2.7400     2.7890     0.4930 ca         1 B9U      -0.110000
      4 CAD          3.1750     2.0820    -0.6110 ca         1 B9U      -0.140000
      5 CAE          2.8210     0.7360    -0.6940 ca         1 B9U      -0.045200
      6 CAF          2.0490     0.0970     0.3020 ca         1 B9U      -0.093800
      7 CAH          2.5380    -1.3910    -1.2930 cc         1 B9U      -0.092100
      8 CAI          1.8780    -1.2670    -0.1030 cd         1 B9U      -0.148400
      9 CAJ          1.0700    -2.3110     0.5910 c3         1 B9U      -0.013200
     10 CAK         -0.4070    -2.2980     0.1630 c3         1 B9U       0.109700
     11 CAL         -1.2490    -3.3040     0.9290 c3         1 B9U       0.125400
     12 CAO         -1.6730     1.2720    -0.3460 c3         1 B9U       0.073100
     13 CAR         -2.9710     1.2600     0.4760 c3         1 B9U      -0.070700
     14 CAS         -3.3750     2.6810     0.8540 c3         1 B9U      -0.085600
     15 CAT         -4.1040     0.5400    -0.2480 c3         1 B9U      -0.085600
     16 NAG          3.1010    -0.1970    -1.6480 na         1 B9U      -0.168400
     17 NAM         -0.9790    -0.9730     0.2970 ns         1 B9U      -0.544900
     18 OAP         -1.0850    -0.4360    -1.9020 o          1 B9U      -0.626100
     19 OAQ         -1.8230     2.0160    -1.5220 oh         1 B9U      -0.593800
     20 OAU         -1.2610    -2.9410     2.2910 oh         1 B9U      -0.606800
     21 H1           1.0460     0.3770     2.2000 ha         1 B9U       0.128000
     22 H2           1.6530     2.7580     2.3510 ha         1 B9U       0.127000
     23 H3           2.9980     3.8360     0.5890 ha         1 B9U       0.128000
     24 H4           3.7680     2.5570    -1.3820 ha         1 B9U       0.131000
     25 H5           2.6460    -2.2570    -1.9270 h4         1 B9U       0.162000
     26 H6           1.4680    -3.3060     0.3740 hc         1 B9U       0.054700
     27 H7           1.1430    -2.1810     1.6740 hc         1 B9U       0.054700
     28 H8          -0.4590    -2.5670    -0.8930 h1         1 B9U       0.083700
     29 H9          -2.2600    -3.3090     0.5050 h1         1 B9U       0.030700
     30 H10         -0.8270    -4.3060     0.7760 h1         1 B9U       0.030700
     31 H11         -0.8790     1.7200     0.2720 h1         1 B9U       0.070700
     32 H12         -2.7630     0.7260     1.4090 hc         1 B9U       0.037700
     33 H13         -4.2380     2.6690     1.5210 hc         1 B9U       0.037200
     34 H14         -2.5670     3.2050     1.3680 hc         1 B9U       0.037200
     35 H15         -3.6470     3.2650    -0.0260 hc         1 B9U       0.037200
     36 H16         -3.8560    -0.4990    -0.4740 hc         1 B9U       0.037200
     37 H17         -5.0040     0.5270     0.3690 hc         1 B9U       0.037200
     38 H18         -4.3540     1.0400    -1.1840 hc         1 B9U       0.037200
     39 H19          3.6520    -0.0430    -2.4750 hn         1 B9U       0.300700
     40 H20         -1.0940    -0.6270     1.2370 hn         1 B9U       0.324500
     41 H21         -1.6690     1.3960    -2.2510 ho         1 B9U       0.434000
     42 H22         -1.9250    -3.4680     2.7420 ho         1 B9U       0.408000
     43 CAN         -1.2100    -0.1380    -0.7190 c          1 B9U       0.639100
@<TRIPOS>BOND
     1     1     2 ar  
     2     1     6 ar  
     3     1    21 1   
     4     2     3 ar  
     5     2    22 1   
     6     3     4 ar  
     7     3    23 1   
     8     4     5 ar  
     9     4    24 1   
    10     5     6 ar  
    11     5    16 1   
    12     6     8 1   
    13     7     8 2   
    14     7    16 1   
    15     7    25 1   
    16     8     9 1   
    17     9    10 1   
    18     9    26 1   
    19     9    27 1   
    20    10    11 1   
    21    10    17 1   
    22    10    28 1   
    23    11    20 1   
    24    11    29 1   
    25    11    30 1   
    26    12    13 1   
    27    12    19 1   
    28    12    31 1   
    29    12    43 1   
    30    13    14 1   
    31    13    15 1   
    32    13    32 1   
    33    14    33 1   
    34    14    34 1   
    35    14    35 1   
    36    15    36 1   
    37    15    37 1   
    38    15    38 1   
    39    16    39 1   
    40    17    40 1   
    41    17    43 1   
    42    18    43 2   
    43    19    41 1   
    44    20    42 1   
@<TRIPOS>SUBSTRUCTURE
     1 B9U         1 TEMP              0 ****  ****    0 ROOT
