@<TRIPOS>MOLECULE
B9U
   43    44     1     0     0
SMALL
No Charge or Current Charge


@<TRIPOS>ATOM
      1 CAA          1.1940     0.8500     1.4000 ca         1 B9U      -0.074000
      2 CAB          1.4130     2.2400     1.4960 ca         1 B9U      -0.141000
      3 CAC          2.3010     2.8900     0.6030 ca         1 B9U      -0.092000
      4 CAD          2.9790     2.1530    -0.3920 ca         1 B9U      -0.122000
      5 CAE          2.7390     0.7750    -0.4640 ca         1 B9U      -0.045200
      6 CAF          1.8780     0.1520     0.3930 ca         1 B9U      -0.093800
      7 CAH          2.7230    -1.4350    -1.0670 cc         1 B9U      -0.142100
      8 CAI          1.8580    -1.2420     0.0040 cd         1 B9U      -0.148400
      9 CAJ          0.9910    -2.3110     0.6310 c3         1 B9U      -0.013200
     10 CAK         -0.4160    -2.4110    -0.0170 c3         1 B9U       0.109700
     11 CAL         -1.3120    -3.4880     0.6520 c3         1 B9U       0.148600
     12 CAO         -1.6970     1.2070    -0.8240 c3         1 B9U       0.096300
     13 CAR         -2.5250     1.3930     0.4920 c3         1 B9U      -0.070700
     14 CAS         -2.7270     2.8890     0.8350 c3         1 B9U      -0.085600
     15 CAT         -3.8790     0.6370     0.4810 c3         1 B9U      -0.085600
     16 NAG          3.2620    -0.1590    -1.3410 na         1 B9U      -0.218700
     17 NAM         -1.0830    -1.1020    -0.0160 ns         1 B9U      -0.477900
     18 OAP         -0.8460    -0.6040    -2.2250 o          1 B9U      -0.626100
     19 OAQ         -2.4450     1.7130    -1.9590 oh         1 B9U      -0.656000
     20 OAU         -1.6970    -3.0930     1.9820 oh         1 B9U      -0.669000
     21 H1           0.5160     0.3410     2.0800 ha         1 B9U       0.110000
     22 H2           0.8970     2.8170     2.2610 ha         1 B9U       0.109000
     23 H3           2.4630     3.9630     0.6860 ha         1 B9U       0.110000
     24 H4           3.6630     2.6420    -1.0820 ha         1 B9U       0.113000
     25 H5           2.9720    -2.3250    -1.6380 h4         1 B9U       0.212000
     26 H6           1.4890    -3.2850     0.5500 hc         1 B9U       0.054700
     27 H7           0.8840    -2.1130     1.7040 hc         1 B9U       0.054700
     28 H8          -0.2690    -2.7250    -1.0590 h1         1 B9U       0.083700
     29 H9          -2.2070    -3.6320     0.0310 h1         1 B9U       0.030700
     30 H10         -0.7710    -4.4440     0.6750 h1         1 B9U       0.030700
     31 H11         -0.7830     1.8040    -0.7010 h1         1 B9U       0.070700
     32 H12         -1.9320     0.9850     1.3190 hc         1 B9U       0.037700
     33 H13         -3.2240     2.9990     1.8060 hc         1 B9U       0.037200
     34 H14         -1.7630     3.4080     0.8890 hc         1 B9U       0.037200
     35 H15         -3.3440     3.3890     0.0780 hc         1 B9U       0.037200
     36 H16         -3.7400    -0.4310     0.2780 hc         1 B9U       0.037200
     37 H17         -4.3780     0.7290     1.4530 hc         1 B9U       0.037200
     38 H18         -4.5510     1.0440    -0.2840 hc         1 B9U       0.037200
     39 H19          3.9300     0.0500    -2.0770 hn         1 B9U       0.351000
     40 H20         -1.4190    -0.7560     0.8730 hn         1 B9U       0.324500
     41 H21         -2.0520     1.2910    -2.7580 ho         1 B9U       0.473000
     42 H22         -2.2610    -3.8130     2.3430 ho         1 B9U       0.447000
     43 CAN         -1.1590    -0.2440    -1.0950 c          1 B9U       0.572100
@<TRIPOS>BOND
     1     1     2 ar  
     2     1     6 ar  
     3     1    21 1   
     4     2     3 ar  
     5     2    22 1   
     6     3     4 ar  
     7     3    23 1   
     8     4     5 ar  
     9     4    24 1   
    10     5     6 ar  
    11     5    16 1   
    12     6     8 1   
    13     7     8 2   
    14     7    16 1   
    15     7    25 1   
    16     8     9 1   
    17     9    10 1   
    18     9    26 1   
    19     9    27 1   
    20    10    11 1   
    21    10    17 1   
    22    10    28 1   
    23    11    20 1   
    24    11    29 1   
    25    11    30 1   
    26    12    13 1   
    27    12    19 1   
    28    12    31 1   
    29    12    43 1   
    30    13    14 1   
    31    13    15 1   
    32    13    32 1   
    33    14    33 1   
    34    14    34 1   
    35    14    35 1   
    36    15    36 1   
    37    15    37 1   
    38    15    38 1   
    39    16    39 1   
    40    17    40 1   
    41    17    43 1   
    42    18    43 2   
    43    19    41 1   
    44    20    42 1   
@<TRIPOS>SUBSTRUCTURE
     1 B9U         1 TEMP              0 ****  ****    0 ROOT
