@<TRIPOS>MOLECULE
B9W
   64    67     1     0     0
SMALL
No Charge or Current Charge


@<TRIPOS>ATOM
      1 C1           4.6900     3.4220    -0.8450 c3         1 B9W      -0.089600
      2 C2           3.3710     2.6390    -1.0630 c3         1 B9W      -0.068700
      3 C3           3.1140     2.4120    -2.5750 c3         1 B9W      -0.089600
      4 N6           4.4200     0.4150    -0.6080 ns         1 B9W      -0.489900
      5 C7           5.3730    -0.1050     0.2490 c          1 B9W       0.565100
      6 C9           6.3730    -1.1160    -0.3880 c3         1 B9W       0.103000
      7 C10          7.8000    -0.5310    -0.4630 c3         1 B9W      -0.144100
      8 C13          1.9580     0.5930    -0.2160 c3         1 B9W       0.210600
      9 C16         -0.3810     1.2270     0.3360 ca         1 B9W       0.111100
     10 C19         -3.1470     0.7850     0.4040 ca         1 B9W      -0.057200
     11 C20         -2.5980     1.8510     1.0500 ca         1 B9W      -0.194900
     12 C21         -3.7010     2.6010     1.5880 cc         1 B9W       0.350800
     13 N23         -4.5260     0.8830     0.5890 na         1 B9W       0.161700
     14 C24         -5.4000    -0.1170     0.1410 cc         1 B9W      -0.088100
     15 N26         -7.6500    -0.4850    -0.6600 n          1 B9W      -0.263000
     16 C27         -8.9730     0.0560    -1.0460 c3         1 B9W       0.075300
     17 C30         -6.1060    -2.3620    -0.3570 cd         1 B9W      -0.312200
     18 C31         -5.1110    -1.5200     0.0910 cc         1 B9W      -0.088000
     19 C32         -1.2200     2.1090     1.0470 ca         1 B9W      -0.083000
     20 C33          1.9960    -0.7000     0.6070 ca         1 B9W      -0.132300
     21 C34          2.0370    -0.6580     2.0170 ca         1 B9W      -0.088000
     22 C35          2.0910    -1.8480     2.7620 ca         1 B9W      -0.107000
     23 C4           3.3330     1.3280    -0.2150 c3         1 B9W       0.118700
     24 O8           5.4170     0.2100     1.4320 o          1 B9W      -0.560100
     25 F11          6.4110    -2.2590     0.3400 f          1 B9W      -0.111500
     26 F12          5.9910    -1.4760    -1.6390 f          1 B9W      -0.111500
     27 O15          0.9750     1.4910     0.3420 os         1 B9W      -0.351100
     28 C17         -0.9520     0.1430    -0.3870 ca         1 B9W      -0.139000
     29 C18         -2.3480    -0.0760    -0.3710 ca         1 B9W      -0.090000
     30 N22         -4.8800     2.0390     1.2920 nd         1 B9W      -0.508100
     31 C25         -6.6450     0.3740    -0.2030 cd         1 B9W      -0.013400
     32 C28         -7.4420    -1.8830    -0.7690 c          1 B9W       0.546200
     33 O29         -8.3070    -2.6510    -1.1680 o          1 B9W      -0.549000
     34 C36          2.1070    -3.0900     2.1060 ca         1 B9W      -0.095000
     35 C37          2.0700    -3.1400     0.7030 ca         1 B9W      -0.107000
     36 C38          2.0150    -1.9510    -0.0440 ca         1 B9W      -0.088000
     37 H1           5.5510     2.8670    -1.2360 hc         1 B9W       0.035700
     38 H2           4.6520     4.3920    -1.3540 hc         1 B9W       0.035700
     39 H3           4.8580     3.6090     0.2230 hc         1 B9W       0.035700
     40 H4           2.5650     3.2870    -0.6970 hc         1 B9W       0.072700
     41 H5           3.8730     1.7540    -3.0140 hc         1 B9W       0.035700
     42 H6           2.1270     1.9680    -2.7490 hc         1 B9W       0.035700
     43 H7           3.1420     3.3660    -3.1150 hc         1 B9W       0.035700
     44 H8           4.4600     0.0990    -1.5700 hn         1 B9W       0.327500
     45 H9           8.1710    -0.2820     0.5390 hc         1 B9W       0.069367
     46 H10          8.4930    -1.2520    -0.9150 hc         1 B9W       0.069367
     47 H11          7.8110     0.3830    -1.0700 hc         1 B9W       0.069367
     48 H12          1.7020     0.3480    -1.2540 h1         1 B9W       0.045700
     49 H13         -3.7170     3.5250     2.1500 h4         1 B9W       0.052800
     50 H14         -9.1740    -0.1770    -2.0990 h1         1 B9W       0.057700
     51 H15         -9.7530    -0.3990    -0.4230 h1         1 B9W       0.057700
     52 H16         -9.0040     1.1440    -0.9120 h1         1 B9W       0.057700
     53 H17         -5.9680    -3.4350    -0.4210 ha         1 B9W       0.214000
     54 H18         -4.1530    -1.9080     0.4320 ha         1 B9W       0.200000
     55 H19         -0.8070     2.9710     1.5660 ha         1 B9W       0.133000
     56 H20          2.0300     0.2980     2.5360 ha         1 B9W       0.115000
     57 H21          2.1220    -1.8070     3.8490 ha         1 B9W       0.115500
     58 H22          3.5060     1.6300     0.8270 h1         1 B9W       0.096700
     59 H23         -0.3350    -0.5250    -0.9790 ha         1 B9W       0.123000
     60 H24         -2.7750    -0.8740    -0.9710 ha         1 B9W       0.125000
     61 H25         -6.9330     1.4210    -0.1670 h4         1 B9W       0.217000
     62 H26          2.1490    -4.0110     2.6830 ha         1 B9W       0.114000
     63 H27          2.0850    -4.1010     0.1930 ha         1 B9W       0.115500
     64 H28          1.9930    -2.0030    -1.1300 ha         1 B9W       0.115000
@<TRIPOS>BOND
     1     1     2 1   
     2     1    37 1   
     3     1    38 1   
     4     1    39 1   
     5     2     3 1   
     6     2    23 1   
     7     2    40 1   
     8     3    41 1   
     9     3    42 1   
    10     3    43 1   
    11     4     5 1   
    12     4    23 1   
    13     4    44 1   
    14     5     6 1   
    15     5    24 2   
    16     6     7 1   
    17     6    25 1   
    18     6    26 1   
    19     7    45 1   
    20     7    46 1   
    21     7    47 1   
    22     8    20 1   
    23     8    23 1   
    24     8    27 1   
    25     8    48 1   
    26     9    19 ar  
    27     9    27 1   
    28     9    28 ar  
    29    10    11 ar  
    30    10    13 1   
    31    10    29 ar  
    32    11    12 1   
    33    11    19 ar  
    34    12    30 2   
    35    12    49 1   
    36    13    14 1   
    37    13    30 1   
    38    14    18 1   
    39    14    31 2   
    40    15    16 1   
    41    15    31 1   
    42    15    32 1   
    43    16    50 1   
    44    16    51 1   
    45    16    52 1   
    46    17    18 2   
    47    17    32 1   
    48    17    53 1   
    49    18    54 1   
    50    19    55 1   
    51    20    21 ar  
    52    20    36 ar  
    53    21    22 ar  
    54    21    56 1   
    55    22    34 ar  
    56    22    57 1   
    57    23    58 1   
    58    28    29 ar  
    59    28    59 1   
    60    29    60 1   
    61    31    61 1   
    62    32    33 2   
    63    34    35 ar  
    64    34    62 1   
    65    35    36 ar  
    66    35    63 1   
    67    36    64 1   
@<TRIPOS>SUBSTRUCTURE
     1 B9W         1 TEMP              0 ****  ****    0 ROOT
