@<TRIPOS>MOLECULE
B9W
   64    67     1     0     0
SMALL
abcg2


@<TRIPOS>ATOM
      1 C1           4.5220     3.3520    -0.8640 c3         1 B9W      -0.089600
      2 C2           3.1860     2.6190    -0.9330 c3         1 B9W      -0.068700
      3 C3           2.7520     2.4130    -2.3820 c3         1 B9W      -0.089600
      4 N6           4.2620     0.4230    -0.6580 ns         1 B9W      -0.489900
      5 C7           5.2160    -0.1560     0.0790 c          1 B9W       0.565100
      6 C9           6.1530    -1.1070    -0.6820 c3         1 B9W       0.103000
      7 C10          7.5100    -0.5090    -0.9290 c3         1 B9W      -0.144100
      8 C13          1.9230     0.5450    -0.0400 c3         1 B9W       0.210600
      9 C16         -0.3320     1.1660     0.5090 ca         1 B9W       0.111100
     10 C19         -3.0580     0.7160     0.5220 ca         1 B9W      -0.057200
     11 C20         -2.5180     1.8220     1.1950 ca         1 B9W      -0.194900
     12 C21         -3.6520     2.4840     1.7400 cc         1 B9W       0.350800
     13 N23         -4.4110     0.7790     0.7080 na         1 B9W       0.161700
     14 C24         -5.3890    -0.0820     0.1860 cc         1 B9W      -0.088100
     15 N26         -7.4270    -0.3750    -0.9810 n          1 B9W      -0.263000
     16 C27         -8.5580     0.2140    -1.6850 c3         1 B9W       0.075300
     17 C30         -6.2680    -2.2880    -0.1520 cd         1 B9W      -0.312200
     18 C31         -5.3080    -1.4820     0.3650 cc         1 B9W      -0.088000
     19 C32         -1.1400     2.0500     1.1950 ca         1 B9W      -0.083000
     20 C33          2.0660    -0.7090     0.7880 ca         1 B9W      -0.132300
     21 C34          2.0090    -0.6570     2.1770 ca         1 B9W      -0.088000
     22 C35          2.1920    -1.8090     2.9290 ca         1 B9W      -0.107000
     23 C4           3.2580     1.3150    -0.1220 c3         1 B9W       0.118700
     24 O8           5.4260     0.0440     1.2590 o          1 B9W      -0.560100
     25 F11          6.2580    -2.2440     0.0580 f          1 B9W      -0.111500
     26 F12          5.5840    -1.4860    -1.8670 f          1 B9W      -0.111500
     27 O15          0.9950     1.4490     0.5170 os         1 B9W      -0.351100
     28 C17         -0.8870     0.0580    -0.1690 ca         1 B9W      -0.139000
     29 C18         -2.2460    -0.1770    -0.1750 ca         1 B9W      -0.090000
     30 N22         -4.7550     1.8490     1.4390 nd         1 B9W      -0.508100
     31 C25         -6.4530     0.4240    -0.4930 cd         1 B9W      -0.013400
     32 C28         -7.4010    -1.7630    -0.8670 c          1 B9W       0.546200
     33 O29         -8.3030    -2.4370    -1.3540 o          1 B9W      -0.549000
     34 C36          2.4450    -3.0220     2.3020 ca         1 B9W      -0.095000
     35 C37          2.5050    -3.0790     0.9170 ca         1 B9W      -0.107000
     36 C38          2.3080    -1.9290     0.1660 ca         1 B9W      -0.088000
     37 H1           5.3120     2.8010    -1.3770 hc         1 B9W       0.035700
     38 H2           4.4430     4.3310    -1.3380 hc         1 B9W       0.035700
     39 H3           4.8390     3.5090     0.1690 hc         1 B9W       0.035700
     40 H4           2.4390     3.2470    -0.4430 hc         1 B9W       0.072700
     41 H5           3.4480     1.7800    -2.9380 hc         1 B9W       0.035700
     42 H6           1.7580     1.9720    -2.4640 hc         1 B9W       0.035700
     43 H7           2.7190     3.3720    -2.9000 hc         1 B9W       0.035700
     44 H8           4.1800     0.1620    -1.6280 hn         1 B9W       0.327500
     45 H9           7.9770    -0.2280     0.0130 hc         1 B9W       0.069367
     46 H10          8.1540    -1.2250    -1.4410 hc         1 B9W       0.069367
     47 H11          7.4220     0.3850    -1.5460 hc         1 B9W       0.069367
     48 H12          1.6230     0.2660    -1.0590 h1         1 B9W       0.045700
     49 H13         -3.6830     3.3840     2.3360 h4         1 B9W       0.052800
     50 H14         -8.5730    -0.1100    -2.7230 h1         1 B9W       0.057700
     51 H15         -9.4930    -0.0760    -1.2110 h1         1 B9W       0.057700
     52 H16         -8.4690     1.2960    -1.6540 h1         1 B9W       0.057700
     53 H17         -6.2190    -3.3600    -0.0250 ha         1 B9W       0.214000
     54 H18         -4.4820    -1.9090     0.9200 ha         1 B9W       0.200000
     55 H19         -0.7110     2.9010     1.7090 ha         1 B9W       0.133000
     56 H20          1.8180     0.2820     2.6810 ha         1 B9W       0.115000
     57 H21          2.1410    -1.7580     4.0090 ha         1 B9W       0.115500
     58 H22          3.5610     1.5690     0.8960 h1         1 B9W       0.096700
     59 H23         -0.2550    -0.6360    -0.7050 ha         1 B9W       0.123000
     60 H24         -2.6460    -1.0280    -0.7090 ha         1 B9W       0.125000
     61 H25         -6.5690     1.4850    -0.6610 h4         1 B9W       0.217000
     62 H26          2.5910    -3.9180     2.8910 ha         1 B9W       0.114000
     63 H27          2.6980    -4.0210     0.4180 ha         1 B9W       0.115500
     64 H28          2.3380    -1.9860    -0.9160 ha         1 B9W       0.115000
@<TRIPOS>BOND
     1     1     2 1   
     2     1    37 1   
     3     1    38 1   
     4     1    39 1   
     5     2     3 1   
     6     2    23 1   
     7     2    40 1   
     8     3    41 1   
     9     3    42 1   
    10     3    43 1   
    11     4     5 1   
    12     4    23 1   
    13     4    44 1   
    14     5     6 1   
    15     5    24 2   
    16     6     7 1   
    17     6    25 1   
    18     6    26 1   
    19     7    45 1   
    20     7    46 1   
    21     7    47 1   
    22     8    20 1   
    23     8    23 1   
    24     8    27 1   
    25     8    48 1   
    26     9    19 ar  
    27     9    27 1   
    28     9    28 ar  
    29    10    11 ar  
    30    10    13 1   
    31    10    29 ar  
    32    11    12 1   
    33    11    19 ar  
    34    12    30 2   
    35    12    49 1   
    36    13    14 1   
    37    13    30 1   
    38    14    18 1   
    39    14    31 2   
    40    15    16 1   
    41    15    31 1   
    42    15    32 1   
    43    16    50 1   
    44    16    51 1   
    45    16    52 1   
    46    17    18 2   
    47    17    32 1   
    48    17    53 1   
    49    18    54 1   
    50    19    55 1   
    51    20    21 ar  
    52    20    36 ar  
    53    21    22 ar  
    54    21    56 1   
    55    22    34 ar  
    56    22    57 1   
    57    23    58 1   
    58    28    29 ar  
    59    28    59 1   
    60    29    60 1   
    61    31    61 1   
    62    32    33 2   
    63    34    35 ar  
    64    34    62 1   
    65    35    36 ar  
    66    35    63 1   
    67    36    64 1   
@<TRIPOS>SUBSTRUCTURE
     1 B9W         1 TEMP              0 ****  ****    0 ROOT
