@<TRIPOS>MOLECULE
B9Y
   84    88     1     0     0
SMALL
bcc


@<TRIPOS>ATOM
      1 C17          3.9160    -0.7720    -0.2350 c3         1 B9Y      -0.009300
      2 C15          5.1060    -1.7070    -0.4330 c3         1 B9Y       0.178800
      3 C1           5.1550    -5.4540    -0.2830 c6         1 B9Y      -0.103400
      4 C6           5.6020    -4.0490    -0.6590 c6         1 B9Y       0.169300
      5 C4           4.8770    -3.1800     1.4550 c6         1 B9Y       0.169300
      6 C3           4.3980    -4.5510     1.9110 c6         1 B9Y      -0.103400
      7 C2           5.1490    -5.6650     1.2160 c6         1 B9Y       0.175600
      8 C21          3.0070     1.8800    -0.5120 ca         1 B9Y       0.083900
      9 C23          1.8070     1.3460    -0.0630 ca         1 B9Y      -0.136000
     10 C24          0.6650     2.1340     0.1030 ca         1 B9Y      -0.062500
     11 C25          0.7450     3.4910    -0.1910 ca         1 B9Y      -0.135000
     12 C26          1.9370     4.0370    -0.6350 ca         1 B9Y      -0.069000
     13 C27          3.0700     3.2560    -0.8000 ca         1 B9Y      -0.192300
     14 C34          4.3390     3.8860    -1.2860 c3         1 B9Y       0.722200
     15 C42         -0.5740     1.5110     0.5760 cc         1 B9Y       0.378800
     16 C44         -1.7390     2.0950     1.1250 cc         1 B9Y      -0.257600
     17 C45         -2.5400     1.0250     1.4430 cd         1 B9Y      -0.100600
     18 C53         -3.8590     1.1110     2.1240 c6         1 B9Y      -0.032100
     19 C54         -3.9260     2.4920     2.7740 c6         1 B9Y       0.107000
     20 C56         -2.1470     3.5050     1.4190 c6         1 B9Y       0.177300
     21 C64         -3.2860    -1.7940    -0.0130 c3         1 B9Y       0.133100
     22 C68         -3.8520    -3.1930     0.2170 c3         1 B9Y       0.131800
     23 C72         -5.8610    -2.9150    -1.0900 c6         1 B9Y       0.165800
     24 C73         -6.6550    -3.4320    -2.2810 c6         1 B9Y      -0.074900
     25 C74         -6.9970    -4.9050    -2.1120 c6         1 B9Y      -0.076400
     26 C75         -5.7270    -5.6970    -1.8320 c6         1 B9Y      -0.074900
     27 C76         -4.9720    -5.0990    -0.6550 c6         1 B9Y       0.165800
     28 C87         -5.8720     4.2550     1.6440 c3         1 B9Y       0.061400
     29 F13          6.4770    -5.6690     1.6770 f          1 B9Y      -0.258300
     30 F36          4.2070     5.1970    -1.4980 f          1 B9Y      -0.231633
     31 F38          5.3430     3.7360    -0.4090 f          1 B9Y      -0.231633
     32 F40          4.7580     3.3470    -2.4410 f          1 B9Y      -0.231633
     33 N46         -1.8730    -0.0880     1.0790 na         1 B9Y       0.141400
     34 N47         -0.6920     0.1900     0.5520 nd         1 B9Y      -0.503800
     35 N5           4.7850    -3.0480     0.0090 n3         1 B9Y      -0.727600
     36 N55         -3.5430     3.5260     1.8290 n          1 B9Y      -0.487800
     37 N70         -4.6550    -3.6970    -0.8750 n3         1 B9Y      -0.705600
     38 O66         -2.6520    -1.6430    -1.2540 oh         1 B9Y      -0.559800
     39 O85         -4.0670     5.1970     0.4010 o          1 B9Y      -0.558100
     40 O89         -6.6120     5.1600     0.8810 oh         1 B9Y      -0.556800
     41 S19          4.4490     0.8890    -0.7200 ss         1 B9Y      -0.222000
     42 H1           3.0840    -1.1010    -0.8590 h1         1 B9Y       0.074200
     43 H2           3.5900    -0.7560     0.8050 h1         1 B9Y       0.074200
     44 H3           5.3470    -1.7380    -1.4980 h1         1 B9Y       0.047700
     45 H4           5.9950    -1.3070     0.0820 h1         1 B9Y       0.047700
     46 H5           4.1380    -5.6220    -0.6470 hc         1 B9Y       0.057700
     47 H6           5.7930    -6.1940    -0.7700 hc         1 B9Y       0.057700
     48 H7           6.6730    -3.9230    -0.4280 h1         1 B9Y       0.039950
     49 H8           5.5000    -3.9200    -1.7380 h1         1 B9Y       0.039950
     50 H9           4.2580    -2.4180     1.9310 h1         1 B9Y       0.039950
     51 H10          5.9070    -3.0040     1.8060 h1         1 B9Y       0.039950
     52 H11          4.4950    -4.6410     2.9950 hc         1 B9Y       0.057700
     53 H12          3.3360    -4.6620     1.6770 hc         1 B9Y       0.057700
     54 H13          4.7270    -6.6390     1.4710 h1         1 B9Y       0.052700
     55 H14          1.7330     0.2950     0.1730 ha         1 B9Y       0.153000
     56 H15         -0.1120     4.1390    -0.0980 ha         1 B9Y       0.145000
     57 H16          1.9650     5.0940    -0.8580 ha         1 B9Y       0.151000
     58 H17         -4.6840     0.9850     1.4170 hc         1 B9Y       0.059200
     59 H18         -3.9710     0.3420     2.8910 hc         1 B9Y       0.059200
     60 H19         -4.9180     2.6790     3.1770 h1         1 B9Y       0.054700
     61 H20         -3.2360     2.5290     3.6200 h1         1 B9Y       0.054700
     62 H21         -1.5210     3.9370     2.2080 h1         1 B9Y       0.071700
     63 H22         -2.0480     4.1480     0.5470 h1         1 B9Y       0.071700
     64 H23         -2.8630    -1.5910     2.1000 h1         1 B9Y       0.069200
     65 H24         -1.4770    -2.1020     1.1470 h1         1 B9Y       0.069200
     66 H25         -4.1040    -1.0660    -0.0110 h1         1 B9Y       0.075700
     67 H26         -3.0170    -3.8880     0.3630 h1         1 B9Y       0.032200
     68 H27         -4.4100    -3.1820     1.1710 h1         1 B9Y       0.032200
     69 H29         -6.5060    -2.9240    -0.1920 h1         1 B9Y       0.029450
     70 H30         -7.5600    -2.8300    -2.3950 hc         1 B9Y       0.049700
     71 H31         -6.0640    -3.2940    -3.1920 hc         1 B9Y       0.049700
     72 H32         -7.6920    -5.0250    -1.2740 hc         1 B9Y       0.040200
     73 H33         -7.5060    -5.2900    -2.9990 hc         1 B9Y       0.040200
     74 H34         -5.9580    -6.7430    -1.6160 hc         1 B9Y       0.049700
     75 H35         -5.0830    -5.6870    -2.7160 hc         1 B9Y       0.049700
     76 H36         -5.5740    -5.2320     0.2630 h1         1 B9Y       0.029450
     77 H37         -4.0380    -5.6440    -0.4960 h1         1 B9Y       0.029450
     78 H38         -6.2100     3.2200     1.4970 h1         1 B9Y       0.029700
     79 H39         -5.9520     4.4590     2.7200 h1         1 B9Y       0.029700
     80 H42         -2.0570    -2.3880    -1.3910 ho         1 B9Y       0.411000
     81 H43         -7.5300     5.0840     1.1550 ho         1 B9Y       0.405000
     82 C62         -2.3500    -1.4480     1.1470 c3         1 B9Y       0.013300
     83 C83         -4.4120     4.3700     1.2280 c          1 B9Y       0.671100
     84 H28         -5.5910    -1.8730    -1.2720 h1         1 B9Y       0.029450
@<TRIPOS>BOND
     1     1     2 1   
     2     1    41 1   
     3     1    42 1   
     4     1    43 1   
     5     2    35 1   
     6     2    44 1   
     7     2    45 1   
     8     3     4 1   
     9     3     7 1   
    10     3    46 1   
    11     3    47 1   
    12     4    35 1   
    13     4    48 1   
    14     4    49 1   
    15     5     6 1   
    16     5    35 1   
    17     5    50 1   
    18     5    51 1   
    19     6     7 1   
    20     6    52 1   
    21     6    53 1   
    22     7    29 1   
    23     7    54 1   
    24     8     9 ar  
    25     8    13 ar  
    26     8    41 1   
    27     9    10 ar  
    28     9    55 1   
    29    10    11 ar  
    30    10    15 1   
    31    11    12 ar  
    32    11    56 1   
    33    12    13 ar  
    34    12    57 1   
    35    13    14 1   
    36    14    30 1   
    37    14    31 1   
    38    14    32 1   
    39    15    16 1   
    40    15    34 2   
    41    16    17 2   
    42    16    20 1   
    43    17    18 1   
    44    17    33 1   
    45    18    19 1   
    46    18    58 1   
    47    18    59 1   
    48    19    36 1   
    49    19    60 1   
    50    19    61 1   
    51    20    36 1   
    52    20    62 1   
    53    20    63 1   
    54    21    22 1   
    55    21    38 1   
    56    21    66 1   
    57    21    82 1   
    58    22    37 1   
    59    22    67 1   
    60    22    68 1   
    61    23    24 1   
    62    23    37 1   
    63    23    69 1   
    64    23    84 1   
    65    24    25 1   
    66    24    70 1   
    67    24    71 1   
    68    25    26 1   
    69    25    72 1   
    70    25    73 1   
    71    26    27 1   
    72    26    74 1   
    73    26    75 1   
    74    27    37 1   
    75    27    76 1   
    76    27    77 1   
    77    28    40 1   
    78    28    78 1   
    79    28    79 1   
    80    28    83 1   
    81    33    34 1   
    82    33    82 1   
    83    36    83 1   
    84    38    80 1   
    85    39    83 2   
    86    40    81 1   
    87    64    82 1   
    88    65    82 1   
@<TRIPOS>SUBSTRUCTURE
     1 B9Y         1 TEMP              0 ****  ****    0 ROOT
