@<TRIPOS>MOLECULE
B9Y
   84    88     1     0     0
SMALL
No Charge or Current Charge


@<TRIPOS>ATOM
      1 C17          4.0690    -0.8560    -0.4370 c3         1 B9Y       0.038600
      2 C15          5.2110    -1.8210    -0.8210 c3         1 B9Y       0.178800
      3 C1           6.0960    -5.4590     0.0160 c6         1 B9Y      -0.103400
      4 C6           6.1960    -4.0720    -0.6570 c6         1 B9Y       0.169300
      5 C4           5.4420    -2.9420     1.3930 c6         1 B9Y       0.169300
      6 C3           5.3190    -4.2900     2.1400 c6         1 B9Y      -0.103400
      7 C2           6.2660    -5.3540     1.5460 c6         1 B9Y       0.194300
      8 C21          2.8530     1.7230    -0.8070 ca         1 B9Y      -0.043000
      9 C23          1.6130     1.1800    -0.4180 ca         1 B9Y      -0.118000
     10 C24          0.5870     1.9710     0.1560 ca         1 B9Y      -0.062500
     11 C25          0.8690     3.3440     0.3400 ca         1 B9Y      -0.117000
     12 C26          2.0980     3.8980    -0.0520 ca         1 B9Y      -0.051000
     13 C27          3.1070     3.1040    -0.6360 ca         1 B9Y      -0.192300
     14 C34          4.4490     3.7380    -1.0550 c3         1 B9Y       0.358300
     15 C42         -0.6950     1.3230     0.5570 cc         1 B9Y       0.313500
     16 C44         -1.8950     1.9250     1.0370 cc         1 B9Y      -0.192300
     17 C45         -2.7730     0.9260     1.2900 cd         1 B9Y      -0.151300
     18 C53         -4.1730     1.1440     1.7950 c6         1 B9Y      -0.032100
     19 C54         -4.2920     2.5550     2.4200 c6         1 B9Y       0.107000
     20 C56         -2.2280     3.3870     1.2230 c6         1 B9Y       0.177300
     21 C64         -3.7260    -1.9710     0.0680 c3         1 B9Y       0.156300
     22 C68         -4.3750    -3.3520     0.3430 c3         1 B9Y       0.131800
     23 C72         -6.3500    -3.1000    -1.1550 c6         1 B9Y       0.165800
     24 C73         -7.0410    -3.6270    -2.4360 c6         1 B9Y      -0.074900
     25 C74         -7.3870    -5.1270    -2.3030 c6         1 B9Y      -0.076400
     26 C75         -6.1250    -5.9290    -1.9100 c6         1 B9Y      -0.074900
     27 C76         -5.4630    -5.3340    -0.6440 c6         1 B9Y       0.165800
     28 C87         -5.7130     5.1420     1.8310 c3         1 B9Y       0.084600
     29 F13          7.5970    -4.9790     1.8260 f          1 B9Y      -0.277000
     30 F36          4.5050     5.0680    -0.8090 f          1 B9Y      -0.110333
     31 F38          5.4940     3.1880    -0.3950 f          1 B9Y      -0.110333
     32 F40          4.6860     3.5890    -2.3780 f          1 B9Y      -0.110333
     33 N46         -2.1000    -0.2470     0.9610 na         1 B9Y       0.162800
     34 N47         -0.8100     0.0010     0.5220 nd         1 B9Y      -0.503800
     35 N5           5.2200    -3.1080    -0.0750 n3         1 B9Y      -0.727600
     36 N55         -3.6630     3.6220     1.5760 n          1 B9Y      -0.420800
     37 N70         -5.1280    -3.8940    -0.8230 n3         1 B9Y      -0.705600
     38 O66         -3.2170    -2.0210    -1.2700 oh         1 B9Y      -0.622000
     39 O85         -3.4980     5.8530     1.0780 o          1 B9Y      -0.558100
     40 O89         -6.2300     6.4530     1.4880 oh         1 B9Y      -0.619000
     41 S19          4.0840     0.6330    -1.5330 ss         1 B9Y      -0.143000
     42 H1           3.1090    -1.3750    -0.5350 h1         1 B9Y       0.074200
     43 H2           4.1880    -0.5220     0.6000 h1         1 B9Y       0.074200
     44 H3           5.1110    -2.0290    -1.8960 h1         1 B9Y       0.047700
     45 H4           6.1690    -1.3000    -0.6860 h1         1 B9Y       0.047700
     46 H5           5.1180    -5.9030    -0.2120 hc         1 B9Y       0.057700
     47 H6           6.8530    -6.1350    -0.4020 hc         1 B9Y       0.057700
     48 H7           7.2220    -3.6890    -0.5480 h1         1 B9Y       0.039950
     49 H8           6.0130    -4.1950    -1.7350 h1         1 B9Y       0.039950
     50 H9           4.7060    -2.2510     1.8250 h1         1 B9Y       0.039950
     51 H10          6.4370    -2.5120     1.5810 h1         1 B9Y       0.039950
     52 H11          5.5340    -4.1480     3.2070 hc         1 B9Y       0.057700
     53 H12          4.2830    -4.6480     2.0730 hc         1 B9Y       0.057700
     54 H13          6.0940    -6.3310     2.0210 h1         1 B9Y       0.052700
     55 H14          1.4420     0.1220    -0.5890 ha         1 B9Y       0.135000
     56 H15          0.1620     4.0160     0.8010 ha         1 B9Y       0.127000
     57 H16          2.2550     4.9620     0.1130 ha         1 B9Y       0.133000
     58 H17         -4.8860     1.0580     0.9640 hc         1 B9Y       0.059200
     59 H18         -4.4550     0.3830     2.5360 hc         1 B9Y       0.059200
     60 H19         -5.3530     2.7580     2.6130 h1         1 B9Y       0.054700
     61 H20         -3.7860     2.5510     3.3960 h1         1 B9Y       0.054700
     62 H21         -1.6110     3.8130     2.0270 h1         1 B9Y       0.071700
     63 H22         -2.0000     3.9320     0.2960 h1         1 B9Y       0.071700
     64 H23         -3.0020    -1.7450     2.0990 h1         1 B9Y       0.069200
     65 H24         -1.7770    -2.3260     0.9630 h1         1 B9Y       0.069200
     66 H25         -4.5140    -1.2110     0.1390 h1         1 B9Y       0.075700
     67 H26         -3.5700    -4.0510     0.6080 h1         1 B9Y       0.032200
     68 H27         -5.0310    -3.2730     1.2210 h1         1 B9Y       0.032200
     69 H29         -7.0650    -3.1400    -0.3190 h1         1 B9Y       0.029450
     70 H30         -7.9520    -3.0470    -2.6320 hc         1 B9Y       0.049700
     71 H31         -6.3780    -3.4720    -3.2980 hc         1 B9Y       0.049700
     72 H32         -8.1660    -5.2630    -1.5400 hc         1 B9Y       0.040200
     73 H33         -7.7980    -5.5070    -3.2480 hc         1 B9Y       0.040200
     74 H34         -6.3880    -6.9800    -1.7330 hc         1 B9Y       0.049700
     75 H35         -5.4040    -5.9180    -2.7380 hc         1 B9Y       0.049700
     76 H36         -6.1420    -5.4610     0.2120 h1         1 B9Y       0.029450
     77 H37         -4.5530    -5.9110    -0.4230 h1         1 B9Y       0.029450
     78 H38         -6.2850     4.3670     1.3040 h1         1 B9Y       0.029700
     79 H39         -5.8280     4.9630     2.9080 h1         1 B9Y       0.029700
     80 H42         -3.7520    -2.7510    -1.6690 ho         1 B9Y       0.450000
     81 H43         -7.1770     6.4740     1.7520 ho         1 B9Y       0.444000
     82 C62         -2.6110    -1.6230     1.0820 c3         1 B9Y       0.042600
     83 C83         -4.2020     4.9290     1.4780 c          1 B9Y       0.604100
     84 H28         -6.0980    -2.0420    -1.3120 h1         1 B9Y       0.029450
@<TRIPOS>BOND
     1     1     2 1   
     2     1    41 1   
     3     1    42 1   
     4     1    43 1   
     5     2    35 1   
     6     2    44 1   
     7     2    45 1   
     8     3     4 1   
     9     3     7 1   
    10     3    46 1   
    11     3    47 1   
    12     4    35 1   
    13     4    48 1   
    14     4    49 1   
    15     5     6 1   
    16     5    35 1   
    17     5    50 1   
    18     5    51 1   
    19     6     7 1   
    20     6    52 1   
    21     6    53 1   
    22     7    29 1   
    23     7    54 1   
    24     8     9 ar  
    25     8    13 ar  
    26     8    41 1   
    27     9    10 ar  
    28     9    55 1   
    29    10    11 ar  
    30    10    15 1   
    31    11    12 ar  
    32    11    56 1   
    33    12    13 ar  
    34    12    57 1   
    35    13    14 1   
    36    14    30 1   
    37    14    31 1   
    38    14    32 1   
    39    15    16 1   
    40    15    34 2   
    41    16    17 2   
    42    16    20 1   
    43    17    18 1   
    44    17    33 1   
    45    18    19 1   
    46    18    58 1   
    47    18    59 1   
    48    19    36 1   
    49    19    60 1   
    50    19    61 1   
    51    20    36 1   
    52    20    62 1   
    53    20    63 1   
    54    21    22 1   
    55    21    38 1   
    56    21    66 1   
    57    21    82 1   
    58    22    37 1   
    59    22    67 1   
    60    22    68 1   
    61    23    24 1   
    62    23    37 1   
    63    23    69 1   
    64    23    84 1   
    65    24    25 1   
    66    24    70 1   
    67    24    71 1   
    68    25    26 1   
    69    25    72 1   
    70    25    73 1   
    71    26    27 1   
    72    26    74 1   
    73    26    75 1   
    74    27    37 1   
    75    27    76 1   
    76    27    77 1   
    77    28    40 1   
    78    28    78 1   
    79    28    79 1   
    80    28    83 1   
    81    33    34 1   
    82    33    82 1   
    83    36    83 1   
    84    38    80 1   
    85    39    83 2   
    86    40    81 1   
    87    64    82 1   
    88    65    82 1   
@<TRIPOS>SUBSTRUCTURE
     1 B9Y         1 TEMP              0 ****  ****    0 ROOT
