@<TRIPOS>MOLECULE
B9Z
   50    52     1     0     0
SMALL
abcg2


@<TRIPOS>ATOM
      1 C4          -7.5280     0.6140    -0.2170 ca         1 B9Z       0.115100
      2 C5          -7.1260    -0.6010     0.3420 ca         1 B9Z      -0.174000
      3 C6          -5.7900    -0.8440     0.5910 ca         1 B9Z      -0.073500
      4 C8          -2.9860    -0.8970     1.6820 ca         1 B9Z      -0.106000
      5 C10         -0.6630    -0.6920     1.0650 ca         1 B9Z      -0.128000
      6 C20          3.3260    -1.5900    -1.8040 ca         1 B9Z      -0.114000
      7 C21          2.8830    -1.0760    -0.5830 ca         1 B9Z       0.050700
      8 C22          3.7310    -0.1040     0.1960 c3         1 B9Z      -0.184400
      9 C1          -4.8060     0.1050     0.2950 cp         1 B9Z      -0.030000
     10 C12         -2.3820     0.3070    -0.2940 ca         1 B9Z      -0.106000
     11 C19          2.5950    -2.5300    -2.5140 ca         1 B9Z      -0.115000
     12 C23          4.5000    -0.9630     1.2400 c          1 B9Z       0.726000
     13 C3          -6.5640     1.5730    -0.5190 ca         1 B9Z      -0.174000
     14 C2          -5.2250     1.3100    -0.2630 ca         1 B9Z      -0.073500
     15 C11         -1.0450     0.0600    -0.0440 ca         1 B9Z      -0.095500
     16 C16          1.6640    -1.5580    -0.0840 ca         1 B9Z      -0.140000
     17 C17          0.9360    -2.5160    -0.7880 ca         1 B9Z      -0.099000
     18 C18          1.3910    -2.9970    -2.0040 ca         1 B9Z      -0.168000
     19 C26          4.6170     0.7880    -0.6670 c3         1 B9Z      -0.023400
     20 C27          5.2390     1.9240     0.1290 c3         1 B9Z      -0.195400
     21 C28          6.1200     2.9010    -0.6680 c          1 B9Z       0.717000
     22 C7          -3.3810    -0.1630     0.5650 cp         1 B9Z      -0.075000
     23 C9          -1.6470    -1.1680     1.9260 ca         1 B9Z      -0.095500
     24 O14         -8.8480     0.7690    -0.4250 os         1 B9Z      -0.351100
     25 O24          3.8000    -1.4480     2.1510 o          1 B9Z      -0.720500
     26 O25          5.7200    -1.1370     1.0680 o          1 B9Z      -0.720500
     27 O29          6.7730     3.7240     0.0100 o          1 B9Z      -0.768000
     28 O30          6.1150     2.8160    -1.9120 o          1 B9Z      -0.768000
     29 H1          -7.8680    -1.3550     0.5710 ha         1 B9Z       0.111000
     30 H2          -5.5050    -1.8030     1.0050 ha         1 B9Z       0.118000
     31 H3          -3.7280    -1.2630     2.3810 ha         1 B9Z       0.096000
     32 H4           4.2630    -1.2410    -2.2170 ha         1 B9Z       0.133000
     33 H5           3.0460     0.5430     0.7580 hc         1 B9Z       0.053700
     34 H6          -2.6540     0.8670    -1.1810 ha         1 B9Z       0.096000
     35 H7           2.9680    -2.9000    -3.4600 ha         1 B9Z       0.085000
     36 H8          -6.8350     2.5290    -0.9450 ha         1 B9Z       0.111000
     37 H9          -4.5000     2.0820    -0.4900 ha         1 B9Z       0.118000
     38 H10         -0.2940     0.4400    -0.7250 ha         1 B9Z       0.128000
     39 H11         -9.0620     2.8420    -0.3530 h1         1 B9Z       0.033700
     40 H12         -8.8950     2.1540    -1.9840 h1         1 B9Z       0.033700
     41 H13        -10.3870     1.9020    -1.0610 h1         1 B9Z       0.033700
     42 H14          0.0020    -2.8840    -0.3840 ha         1 B9Z       0.092000
     43 H15          0.8130    -3.7370    -2.5420 ha         1 B9Z       0.079000
     44 H16          5.4080     0.2010    -1.1370 hc         1 B9Z       0.027700
     45 H17          4.0190     1.2060    -1.4820 hc         1 B9Z       0.027700
     46 H18          4.4460     2.5090     0.6130 hc         1 B9Z       0.026200
     47 H19          5.8340     1.5160     0.9510 hc         1 B9Z       0.026200
     48 H20         -1.3710    -1.7540     2.7930 ha         1 B9Z       0.128000
     49 C15         -9.3060     1.9840    -0.9850 c3         1 B9Z       0.153900
     50 S13          1.0370    -0.9830     1.4780 ss         1 B9Z       0.179000
@<TRIPOS>BOND
     1     1     2 ar  
     2     1    13 ar  
     3     1    24 1   
     4     2     3 ar  
     5     2    29 1   
     6     3     9 ar  
     7     3    30 1   
     8     4    22 ar  
     9     4    23 ar  
    10     4    31 1   
    11     5    15 ar  
    12     5    23 ar  
    13     5    50 1   
    14     6     7 ar  
    15     6    11 ar  
    16     6    32 1   
    17     7     8 1   
    18     7    16 ar  
    19     8    12 1   
    20     8    19 1   
    21     8    33 1   
    22     9    14 ar  
    23     9    22 1   
    24    10    15 ar  
    25    10    22 ar  
    26    10    34 1   
    27    11    18 ar  
    28    11    35 1   
    29    12    25 1   
    30    12    26 1   
    31    13    14 ar  
    32    13    36 1   
    33    14    37 1   
    34    15    38 1   
    35    16    17 ar  
    36    16    50 1   
    37    17    18 ar  
    38    17    42 1   
    39    18    43 1   
    40    19    20 1   
    41    19    44 1   
    42    19    45 1   
    43    20    21 1   
    44    20    46 1   
    45    20    47 1   
    46    21    27 1   
    47    21    28 1   
    48    23    48 1   
    49    24    49 1   
    50    39    49 1   
    51    40    49 1   
    52    41    49 1   
@<TRIPOS>SUBSTRUCTURE
     1 B9Z         1 TEMP              0 ****  ****    0 ROOT
