@<TRIPOS>MOLECULE
B9Z
   50    52     1     0     0
SMALL
No Charge or Current Charge


@<TRIPOS>ATOM
      1 C4          -7.2820     0.8410    -0.3530 ca         1 B9Z       0.115100
      2 C5          -7.0150    -0.4350     0.1640 ca         1 B9Z      -0.174000
      3 C6          -5.7000    -0.8130     0.4860 ca         1 B9Z      -0.073500
      4 C8          -2.9420    -1.1760     1.7410 ca         1 B9Z      -0.106000
      5 C10         -0.5490    -1.0920     1.2890 ca         1 B9Z      -0.128000
      6 C20          3.3130    -1.7070    -1.7690 ca         1 B9Z      -0.114000
      7 C21          2.8630    -1.3030    -0.4900 ca         1 B9Z       0.050700
      8 C22          3.5690    -0.1590     0.2660 c3         1 B9Z      -0.184400
      9 C1          -4.6150     0.0790     0.2980 cp         1 B9Z      -0.030000
     10 C12         -2.1100     0.1360    -0.1240 ca         1 B9Z      -0.106000
     11 C19          2.6720    -2.7410    -2.4710 ca         1 B9Z      -0.115000
     12 C23          4.6380    -0.7380     1.2160 c          1 B9Z       0.726000
     13 C3          -6.2170     1.7460    -0.5480 ca         1 B9Z      -0.174000
     14 C2          -4.9020     1.3650    -0.2260 ca         1 B9Z      -0.073500
     15 C11         -0.7940    -0.2420     0.1960 ca         1 B9Z      -0.095500
     16 C16          1.7540    -1.9850     0.0790 ca         1 B9Z      -0.140000
     17 C17          1.1170    -3.0210    -0.6320 ca         1 B9Z      -0.099000
     18 C18          1.5710    -3.3960    -1.9030 ca         1 B9Z      -0.168000
     19 C26          4.1500     0.9540    -0.6550 c3         1 B9Z      -0.023400
     20 C27          4.5700     2.2400     0.1020 c3         1 B9Z      -0.195400
     21 C28          5.0950     3.2920    -0.8900 c          1 B9Z       0.717000
     22 C7          -3.2120    -0.3240     0.6400 cp         1 B9Z      -0.075000
     23 C9          -1.6270    -1.5540     2.0630 ca         1 B9Z      -0.095500
     24 O14         -8.5920     1.1570    -0.6500 os         1 B9Z      -0.351100
     25 O24          4.4810    -0.5890     2.4200 o          1 B9Z      -0.720500
     26 O25          5.5750    -1.3600     0.7350 o          1 B9Z      -0.720500
     27 O29          6.2850     3.2850    -1.1670 o          1 B9Z      -0.768000
     28 O30          4.2930     4.0650    -1.3920 o          1 B9Z      -0.768000
     29 H1          -7.8310    -1.1380     0.3140 ha         1 B9Z       0.111000
     30 H2          -5.5200    -1.8140     0.8720 ha         1 B9Z       0.118000
     31 H3          -3.7570    -1.5380     2.3620 ha         1 B9Z       0.096000
     32 H4           4.1710    -1.2290    -2.2310 ha         1 B9Z       0.133000
     33 H5           2.8250     0.3500     0.8870 hc         1 B9Z       0.053700
     34 H6          -2.2740     0.7810    -0.9830 ha         1 B9Z       0.096000
     35 H7           3.0320    -3.0360    -3.4540 ha         1 B9Z       0.085000
     36 H8          -6.3880     2.7430    -0.9430 ha         1 B9Z       0.111000
     37 H9          -4.0980     2.0820    -0.3720 ha         1 B9Z       0.118000
     38 H10          0.0320     0.1270    -0.4090 ha         1 B9Z       0.128000
     39 H11         -8.7000     3.2450    -0.4900 h1         1 B9Z       0.033700
     40 H12         -8.4740     2.6210    -2.1470 h1         1 B9Z       0.033700
     41 H13        -10.0530     2.4780    -1.3480 h1         1 B9Z       0.033700
     42 H14          0.2670    -3.5380    -0.1930 ha         1 B9Z       0.092000
     43 H15          1.0740    -4.1970    -2.4450 ha         1 B9Z       0.079000
     44 H16          5.0200     0.5730    -1.2040 hc         1 B9Z       0.027700
     45 H17          3.3930     1.2230    -1.4030 hc         1 B9Z       0.027700
     46 H18          3.6650     2.6070     0.6020 hc         1 B9Z       0.026200
     47 H19          5.3670     1.9410     0.7940 hc         1 B9Z       0.026200
     48 H20         -1.4470    -2.2060     2.9150 ha         1 B9Z       0.128000
     49 C15         -8.9690     2.4390    -1.1850 c3         1 B9Z       0.153900
     50 S13          1.1240    -1.5800     1.7140 ss         1 B9Z       0.179000
@<TRIPOS>BOND
     1     1     2 ar  
     2     1    13 ar  
     3     1    24 1   
     4     2     3 ar  
     5     2    29 1   
     6     3     9 ar  
     7     3    30 1   
     8     4    22 ar  
     9     4    23 ar  
    10     4    31 1   
    11     5    15 ar  
    12     5    23 ar  
    13     5    50 1   
    14     6     7 ar  
    15     6    11 ar  
    16     6    32 1   
    17     7     8 1   
    18     7    16 ar  
    19     8    12 1   
    20     8    19 1   
    21     8    33 1   
    22     9    14 ar  
    23     9    22 1   
    24    10    15 ar  
    25    10    22 ar  
    26    10    34 1   
    27    11    18 ar  
    28    11    35 1   
    29    12    25 1   
    30    12    26 1   
    31    13    14 ar  
    32    13    36 1   
    33    14    37 1   
    34    15    38 1   
    35    16    17 ar  
    36    16    50 1   
    37    17    18 ar  
    38    17    42 1   
    39    18    43 1   
    40    19    20 1   
    41    19    44 1   
    42    19    45 1   
    43    20    21 1   
    44    20    46 1   
    45    20    47 1   
    46    21    27 1   
    47    21    28 1   
    48    23    48 1   
    49    24    49 1   
    50    39    49 1   
    51    40    49 1   
    52    41    49 1   
@<TRIPOS>SUBSTRUCTURE
     1 B9Z         1 TEMP              0 ****  ****    0 ROOT
