@<TRIPOS>MOLECULE
BA0
   66    70     1     0     0
SMALL
No Charge or Current Charge


@<TRIPOS>ATOM
      1 C10         -1.6760    13.8430   113.7830 c6         1 BA0      -0.094400
      2 C11         -2.3940    13.1940   114.9900 c6         1 BA0       0.098500
      3 C13         -1.1390    11.3380   116.2500 c          1 BA0       0.600100
      4 C03         -1.8670    16.9860   110.0220 cc         1 BA0      -0.356600
      5 C04         -1.0470    15.9290   110.2030 cd         1 BA0       0.328000
      6 C06          0.9150    14.4480   110.0300 c6         1 BA0       0.208800
      7 C07          0.3170    13.7040   111.2550 c6         1 BA0      -0.111400
      8 C08         -1.2490    13.6180   111.1980 c6         1 BA0       0.120300
      9 C09         -1.9090    13.0060   112.4860 c6         1 BA0      -0.067700
     10 C14         -0.9090    12.2770   117.4540 c3         1 BA0      -0.149400
     11 C15         -0.1130    11.6800   118.6370 c3         1 BA0      -0.076100
     12 C17         -2.1960    10.9440   113.9730 c6         1 BA0       0.098500
     13 C18         -1.4780    11.5300   112.7330 c6         1 BA0      -0.094400
     14 C21         -3.1350    16.5740   110.5210 cc         1 BA0       0.372500
     15 C22         -4.4360    17.2490   110.3530 ca         1 BA0      -0.154500
     16 C23         -4.7450    17.9900   109.1890 ca         1 BA0      -0.067000
     17 C24         -6.0150    18.5700   109.0200 ca         1 BA0      -0.150500
     18 C25         -5.4700    17.0220   111.2930 ca         1 BA0      -0.067000
     19 C26         -6.7380    17.6040   111.1250 ca         1 BA0      -0.150500
     20 C27         -7.0050    18.3980   109.9960 ca         1 BA0       0.128100
     21 C29         -9.0000    19.4900   110.8220 ca         1 BA0       0.106100
     22 C30         -8.4000    20.2130   111.8730 ca         1 BA0      -0.131500
     23 C31         -9.1960    20.7540   112.8980 ca         1 BA0      -0.092000
     24 C32        -10.5910    20.5800   112.8700 ca         1 BA0      -0.122000
     25 C33        -11.1920    19.8710   111.8140 ca         1 BA0      -0.092000
     26 C34        -10.3960    19.3300   110.7890 ca         1 BA0      -0.131500
     27 N01         -2.2190    19.3420   109.7170 nt         1 BA0      -0.604000
     28 N05          0.2780    15.7730   109.9130 nu         1 BA0      -0.938200
     29 N12         -1.9420    11.7870   115.1720 n          1 BA0      -0.418800
     30 N19         -1.8000    14.9570   110.8450 na         1 BA0       0.063800
     31 N20         -3.1190    15.3460   111.0240 nd         1 BA0      -0.524800
     32 O16         -0.6560    10.2110   116.2380 o          1 BA0      -0.612100
     33 O28         -8.2450    18.9630   109.7980 os         1 BA0      -0.259200
     34 O35         -0.3450    18.4640   108.9570 o          1 BA0      -0.673100
     35 H1          -0.6050    13.9160   114.0120 hc         1 BA0       0.053200
     36 H2          -2.0410    14.8700   113.6530 hc         1 BA0       0.053200
     37 H3          -2.2220    13.8060   115.8850 h1         1 BA0       0.058450
     38 H4          -3.4790    13.1980   114.8110 h1         1 BA0       0.058450
     39 H5           0.7370    13.8570   109.1190 h1         1 BA0       0.050700
     40 H6           2.0040    14.5480   110.1540 h1         1 BA0       0.050700
     41 H7           0.7540    12.6990   111.3080 hc         1 BA0       0.069200
     42 H8           0.6370    14.2310   112.1620 hc         1 BA0       0.069200
     43 H9          -1.5050    12.9590   110.3570 h1         1 BA0       0.063700
     44 H10         -2.9930    12.9830   112.3050 hc         1 BA0       0.077700
     45 H11         -0.4320    13.1910   117.0810 hc         1 BA0       0.054700
     46 H12         -1.8840    12.6560   117.7820 hc         1 BA0       0.054700
     47 H13         -0.0050    12.4210   119.4380 hc         1 BA0       0.042700
     48 H14         -0.6270    10.8030   119.0480 hc         1 BA0       0.042700
     49 H15          0.8910    11.3760   118.3160 hc         1 BA0       0.042700
     50 H16         -3.2790    10.9060   113.7860 h1         1 BA0       0.058450
     51 H17         -1.8630     9.9100   114.1350 h1         1 BA0       0.058450
     52 H18         -1.7060    10.9150   111.8510 hc         1 BA0       0.053200
     53 H19         -0.3940    11.4650   112.8930 hc         1 BA0       0.053200
     54 H20         -4.0190    18.0880   108.3850 ha         1 BA0       0.126000
     55 H21         -6.2360    19.1420   108.1230 ha         1 BA0       0.131500
     56 H22         -5.2850    16.4080   112.1720 ha         1 BA0       0.126000
     57 H23         -7.5130    17.4270   111.8660 ha         1 BA0       0.131500
     58 H24         -7.3230    20.3600   111.8940 ha         1 BA0       0.127500
     59 H25         -8.7330    21.3090   113.7110 ha         1 BA0       0.117000
     60 H26        -11.2070    20.9990   113.6630 ha         1 BA0       0.117000
     61 H27        -12.2720    19.7420   111.7910 ha         1 BA0       0.117000
     62 H28        -10.8590    18.7840   109.9710 ha         1 BA0       0.127500
     63 H29         -1.9230    20.2520   109.3980 hn         1 BA0       0.317500
     64 H30         -3.0950    19.2220   110.2010 hn         1 BA0       0.317500
     65 H31          0.6930    16.5190   109.3430 hn         1 BA0       0.532000
     66 C02         -1.4200    18.2850   109.5040 c          1 BA0       0.662700
@<TRIPOS>BOND
     1     1     2 1   
     2     1     9 1   
     3     1    35 1   
     4     1    36 1   
     5     2    29 1   
     6     2    37 1   
     7     2    38 1   
     8     3    10 1   
     9     3    29 1   
    10     3    32 2   
    11     4     5 2   
    12     4    14 1   
    13     4    66 1   
    14     5    28 1   
    15     5    30 1   
    16     6     7 1   
    17     6    28 1   
    18     6    39 1   
    19     6    40 1   
    20     7     8 1   
    21     7    41 1   
    22     7    42 1   
    23     8     9 1   
    24     8    30 1   
    25     8    43 1   
    26     9    13 1   
    27     9    44 1   
    28    10    11 1   
    29    10    45 1   
    30    10    46 1   
    31    11    47 1   
    32    11    48 1   
    33    11    49 1   
    34    12    13 1   
    35    12    29 1   
    36    12    50 1   
    37    12    51 1   
    38    13    52 1   
    39    13    53 1   
    40    14    15 1   
    41    14    31 2   
    42    15    16 ar  
    43    15    18 ar  
    44    16    17 ar  
    45    16    54 1   
    46    17    20 ar  
    47    17    55 1   
    48    18    19 ar  
    49    18    56 1   
    50    19    20 ar  
    51    19    57 1   
    52    20    33 1   
    53    21    22 ar  
    54    21    26 ar  
    55    21    33 1   
    56    22    23 ar  
    57    22    58 1   
    58    23    24 ar  
    59    23    59 1   
    60    24    25 ar  
    61    24    60 1   
    62    25    26 ar  
    63    25    61 1   
    64    26    62 1   
    65    27    63 1   
    66    27    64 1   
    67    27    66 1   
    68    28    65 1   
    69    30    31 1   
    70    34    66 2   
@<TRIPOS>SUBSTRUCTURE
     1 BA0         1 TEMP              0 ****  ****    0 ROOT
