@<TRIPOS>MOLECULE
BA0
   66    70     1     0     0
SMALL
abcg2


@<TRIPOS>ATOM
      1 C10         -1.7730    13.8800   113.5970 c6         1 BA0      -0.094400
      2 C11         -2.5540    13.2260   114.7370 c6         1 BA0       0.098500
      3 C13         -1.4400    11.4610   116.1180 c          1 BA0       0.600100
      4 C03         -1.8440    17.0040   110.0640 cc         1 BA0      -0.356600
      5 C04         -0.9330    15.9640   110.3260 cd         1 BA0       0.328000
      6 C06          1.0360    14.5930   110.2090 c6         1 BA0       0.208800
      7 C07          0.4090    13.7390   111.3030 c6         1 BA0      -0.111400
      8 C08         -1.1070    13.5950   111.1240 c6         1 BA0       0.120300
      9 C09         -1.8420    13.0100   112.3380 c6         1 BA0      -0.067700
     10 C14         -1.3070    12.4680   117.2530 c3         1 BA0      -0.149400
     11 C15         -0.5930    11.9040   118.4730 c3         1 BA0      -0.076100
     12 C17         -2.1520    10.9980   113.8200 c6         1 BA0       0.098500
     13 C18         -1.3650    11.5890   112.6510 c6         1 BA0      -0.094400
     14 C21         -3.1160    16.4360   110.3860 cc         1 BA0       0.372500
     15 C22         -4.4600    17.0360   110.2970 ca         1 BA0      -0.154500
     16 C23         -4.9360    17.5660   109.0940 ca         1 BA0      -0.067000
     17 C24         -6.2060    18.1180   109.0120 ca         1 BA0      -0.150500
     18 C25         -5.2990    17.0580   111.4140 ca         1 BA0      -0.067000
     19 C26         -6.5740    17.6030   111.3430 ca         1 BA0      -0.150500
     20 C27         -7.0210    18.1400   110.1390 ca         1 BA0       0.128100
     21 C29         -8.8980    19.3020   111.0430 ca         1 BA0       0.106100
     22 C30         -8.2450    20.3140   111.7390 ca         1 BA0      -0.131500
     23 C31         -8.9210    20.9830   112.7520 ca         1 BA0      -0.092000
     24 C32        -10.2380    20.6520   113.0610 ca         1 BA0      -0.122000
     25 C33        -10.8800    19.6440   112.3500 ca         1 BA0      -0.092000
     26 C34        -10.2100    18.9610   111.3390 ca         1 BA0      -0.131500
     27 N01         -2.3150    19.3340   109.6270 nt         1 BA0      -0.604000
     28 N05          0.4160    15.9150   110.2220 nu         1 BA0      -0.938200
     29 N12         -2.0640    11.8720   114.9880 n          1 BA0      -0.418800
     30 N19         -1.6480    14.9140   110.7770 na         1 BA0       0.063800
     31 N20         -2.9930    15.1850   110.8040 nd         1 BA0      -0.524800
     32 O16         -0.9940    10.3140   116.2360 o          1 BA0      -0.612100
     33 O28         -8.2890    18.6510   109.9830 os         1 BA0      -0.259200
     34 O35         -0.2270    18.5360   109.3120 o          1 BA0      -0.673100
     35 H1          -0.7380    14.0140   113.9180 hc         1 BA0       0.053200
     36 H2          -2.1910    14.8680   113.4000 hc         1 BA0       0.053200
     37 H3          -2.4870    13.8240   115.6380 h1         1 BA0       0.058450
     38 H4          -3.6120    13.1580   114.4660 h1         1 BA0       0.058450
     39 H5           0.9060    14.1100   109.2320 h1         1 BA0       0.050700
     40 H6           2.1030    14.7120   110.3870 h1         1 BA0       0.050700
     41 H7           0.8590    12.7480   111.2900 hc         1 BA0       0.069200
     42 H8           0.6300    14.1930   112.2710 hc         1 BA0       0.069200
     43 H9          -1.2960    12.9310   110.2740 h1         1 BA0       0.063700
     44 H10         -2.8960    12.9440   112.0520 hc         1 BA0       0.077700
     45 H11         -0.7730    13.3460   116.8780 hc         1 BA0       0.054700
     46 H12         -2.3050    12.8190   117.5300 hc         1 BA0       0.054700
     47 H13         -0.5210    12.6710   119.2460 hc         1 BA0       0.042700
     48 H14         -1.1310    11.0510   118.8880 hc         1 BA0       0.042700
     49 H15          0.4160    11.5750   118.2240 hc         1 BA0       0.042700
     50 H16         -3.2070    10.8960   113.5460 h1         1 BA0       0.058450
     51 H17         -1.7710    10.0200   114.0960 h1         1 BA0       0.058450
     52 H18         -1.4850    10.9470   111.7750 hc         1 BA0       0.053200
     53 H19         -0.3040    11.5930   112.9140 hc         1 BA0       0.053200
     54 H20         -4.3080    17.5450   108.2130 ha         1 BA0       0.126000
     55 H21         -6.5760    18.5290   108.0820 ha         1 BA0       0.131500
     56 H22         -4.9470    16.6450   112.3500 ha         1 BA0       0.126000
     57 H23         -7.2110    17.6160   112.2160 ha         1 BA0       0.131500
     58 H24         -7.2240    20.5700   111.4900 ha         1 BA0       0.127500
     59 H25         -8.4180    21.7720   113.2960 ha         1 BA0       0.117000
     60 H26        -10.7600    21.1790   113.8500 ha         1 BA0       0.117000
     61 H27        -11.9040    19.3800   112.5830 ha         1 BA0       0.117000
     62 H28        -10.6930    18.1700   110.7790 ha         1 BA0       0.127500
     63 H29         -2.0160    20.2490   109.3320 hn         1 BA0       0.317500
     64 H30         -3.2710    19.2040   109.9100 hn         1 BA0       0.317500
     65 H31          0.8090    16.6580   109.6620 hn         1 BA0       0.532000
     66 C02         -1.4110    18.3280   109.6390 c          1 BA0       0.662700
@<TRIPOS>BOND
     1     1     2 1   
     2     1     9 1   
     3     1    35 1   
     4     1    36 1   
     5     2    29 1   
     6     2    37 1   
     7     2    38 1   
     8     3    10 1   
     9     3    29 1   
    10     3    32 2   
    11     4     5 2   
    12     4    14 1   
    13     4    66 1   
    14     5    28 1   
    15     5    30 1   
    16     6     7 1   
    17     6    28 1   
    18     6    39 1   
    19     6    40 1   
    20     7     8 1   
    21     7    41 1   
    22     7    42 1   
    23     8     9 1   
    24     8    30 1   
    25     8    43 1   
    26     9    13 1   
    27     9    44 1   
    28    10    11 1   
    29    10    45 1   
    30    10    46 1   
    31    11    47 1   
    32    11    48 1   
    33    11    49 1   
    34    12    13 1   
    35    12    29 1   
    36    12    50 1   
    37    12    51 1   
    38    13    52 1   
    39    13    53 1   
    40    14    15 1   
    41    14    31 2   
    42    15    16 ar  
    43    15    18 ar  
    44    16    17 ar  
    45    16    54 1   
    46    17    20 ar  
    47    17    55 1   
    48    18    19 ar  
    49    18    56 1   
    50    19    20 ar  
    51    19    57 1   
    52    20    33 1   
    53    21    22 ar  
    54    21    26 ar  
    55    21    33 1   
    56    22    23 ar  
    57    22    58 1   
    58    23    24 ar  
    59    23    59 1   
    60    24    25 ar  
    61    24    60 1   
    62    25    26 ar  
    63    25    61 1   
    64    26    62 1   
    65    27    63 1   
    66    27    64 1   
    67    27    66 1   
    68    28    65 1   
    69    30    31 1   
    70    34    66 2   
@<TRIPOS>SUBSTRUCTURE
     1 BA0         1 TEMP              0 ****  ****    0 ROOT
