@<TRIPOS>MOLECULE
BA1
   65    68     1     0     0
SMALL
No Charge or Current Charge


@<TRIPOS>ATOM
      1 C1           1.1300    -0.8280    -3.0900 c          1 BA1       0.633700
      2 C2           2.0440    -0.1610    -2.0840 ca         1 BA1      -0.185600
      3 C3           2.6100    -0.9360    -1.0450 ca         1 BA1      -0.035000
      4 C4           3.4060    -0.3350    -0.0560 ca         1 BA1      -0.173000
      5 C5           3.6560     1.0410    -0.0940 ca         1 BA1       0.156100
      6 O5           4.3980     1.6190     0.8930 oh         1 BA1      -0.542100
      7 C6           3.1200     1.8210    -1.1260 ca         1 BA1      -0.173000
      8 C7           2.3150     1.2290    -2.1150 ca         1 BA1      -0.035000
      9 O1           0.8950    -2.0280    -3.0580 o          1 BA1      -0.605100
     10 N1           0.5430    -0.0030    -4.0260 ns         1 BA1      -0.497900
     11 N2          -1.7770     0.2330    -7.0450 n7         1 BA1      -0.886400
     12 C10         -0.5190     0.1250    -6.2670 c3         1 BA1       0.164800
     13 C11         -0.6730    -0.3500    -4.7920 c3         1 BA1       0.105700
     14 C12         -1.9640     0.1590    -4.0710 c3         1 BA1       0.169300
     15 C13         -3.2220    -0.6950    -4.3780 c3         1 BA1      -0.087400
     16 C14         -3.7660    -0.5810    -5.8210 c3         1 BA1      -0.069400
     17 C15         -2.7470    -0.8730    -6.9420 c3         1 BA1       0.170800
     18 OAC         -1.7270     0.0670    -2.6470 os         1 BA1      -0.447100
     19 C1B         -2.3730     0.9110    -1.7800 c          1 BA1       0.609700
     20 OBC         -3.1690     1.7710    -2.1350 o          1 BA1      -0.502000
     21 C2B         -1.8960     0.7560    -0.3440 ca         1 BA1      -0.056600
     22 C3B         -2.2370     1.7120     0.6320 ca         1 BA1      -0.213500
     23 C4B         -1.7760     1.5980     1.9490 ca         1 BA1       0.230100
     24 O4          -2.1500     2.5620     2.8370 oh         1 BA1      -0.533600
     25 C5B         -0.9470     0.5240     2.3390 ca         1 BA1      -0.229600
     26 C6B         -0.6330    -0.4570     1.3740 ca         1 BA1       0.230100
     27 O6           0.0840    -1.5690     1.6960 oh         1 BA1      -0.533600
     28 C7B         -1.0950    -0.3370     0.0540 ca         1 BA1      -0.213500
     29 C8          -0.4280     0.4490     3.7590 c          1 BA1       0.707300
     30 O8          -1.0470     1.0090     4.6650 o          1 BA1      -0.602100
     31 C9           0.8820    -0.2250     4.0730 ca         1 BA1      -0.131600
     32 CXU          2.0650     0.2370     3.4610 ca         1 BA1       0.132100
     33 OXU          2.0380     1.2930     2.6030 oh         1 BA1      -0.556100
     34 CX4          3.2990    -0.3590     3.7540 ca         1 BA1      -0.227000
     35 CXE          3.3690    -1.4160     4.6720 ca         1 BA1      -0.100000
     36 CXO          2.2000    -1.8770     5.2980 ca         1 BA1      -0.118000
     37 CXY          0.9460    -1.2940     5.0080 ca         1 BA1      -0.069600
     38 CX8         -0.2980    -1.8410     5.6840 c          1 BA1       0.712600
     39 OX8         -0.2410    -2.0870     6.8810 o          1 BA1      -0.700000
     40 OXI         -1.2790    -2.0810     4.9940 o          1 BA1      -0.700000
     41 H3           2.4200    -2.0060    -0.9910 ha         1 BA1       0.122500
     42 H4           3.8200    -0.9410     0.7460 ha         1 BA1       0.128000
     43 HO5          4.6560     2.5200     0.5980 ho         1 BA1       0.467000
     44 H6           3.3050     2.8920    -1.1590 ha         1 BA1       0.128000
     45 H7           1.9030     1.8710    -2.8900 ha         1 BA1       0.122500
     46 HN1          0.8050     0.9710    -3.9870 hn         1 BA1       0.305500
     47 H10         -1.5150     0.3380    -8.0350 hn         1 BA1       0.416000
     48 H21          0.1700    -0.5680    -6.7690 h1         1 BA1       0.030700
     49 H22         -0.0280     1.1080    -6.2660 h1         1 BA1       0.030700
     50 H8          -0.7450    -1.4450    -4.8280 h1         1 BA1       0.087700
     51 H9          -2.1330     1.2040    -4.3670 h1         1 BA1       0.078700
     52 H51         -2.9990    -1.7480    -4.1650 hc         1 BA1       0.057200
     53 H52         -4.0290    -0.4090    -3.6930 hc         1 BA1       0.057200
     54 H61         -4.6040    -1.2810    -5.9270 hc         1 BA1       0.045700
     55 H62         -4.1860     0.4220    -5.9700 hc         1 BA1       0.045700
     56 H71         -2.2520    -1.8410    -6.7810 h1         1 BA1       0.027700
     57 H72         -3.3080    -0.9450    -7.8840 h1         1 BA1       0.027700
     58 H3B         -2.8610     2.5610     0.3630 ha         1 BA1       0.135000
     59 HO4         -1.8740     2.2420     3.7320 ho         1 BA1       0.494000
     60 HO6          0.1400    -2.1400     0.9020 ho         1 BA1       0.494000
     61 H7B         -0.8350    -1.1040    -0.6710 ha         1 BA1       0.135000
     62 H2OA         2.9100     1.3320     2.1450 ho         1 BA1       0.454000
     63 H112         4.2100     0.0020     3.2830 ha         1 BA1       0.092000
     64 H122         4.3270    -1.8760     4.9020 ha         1 BA1       0.087000
     65 H132         2.2650    -2.7000     6.0070 ha         1 BA1       0.130000
@<TRIPOS>BOND
     1     1     2 1   
     2     1     9 2   
     3     1    10 1   
     4     2     3 ar  
     5     2     8 ar  
     6     3     4 ar  
     7     3    41 1   
     8     4     5 ar  
     9     4    42 1   
    10     5     6 1   
    11     5     7 ar  
    12     6    43 1   
    13     7     8 ar  
    14     7    44 1   
    15     8    45 1   
    16    10    13 1   
    17    10    46 1   
    18    11    12 1   
    19    11    17 1   
    20    11    47 1   
    21    12    13 1   
    22    12    48 1   
    23    12    49 1   
    24    13    14 1   
    25    13    50 1   
    26    14    15 1   
    27    14    18 1   
    28    14    51 1   
    29    15    16 1   
    30    15    52 1   
    31    15    53 1   
    32    16    17 1   
    33    16    54 1   
    34    16    55 1   
    35    17    56 1   
    36    17    57 1   
    37    18    19 1   
    38    19    20 2   
    39    19    21 1   
    40    21    22 ar  
    41    21    28 ar  
    42    22    23 ar  
    43    22    58 1   
    44    23    24 1   
    45    23    25 ar  
    46    24    59 1   
    47    25    26 ar  
    48    25    29 1   
    49    26    27 1   
    50    26    28 ar  
    51    27    60 1   
    52    28    61 1   
    53    29    30 2   
    54    29    31 1   
    55    31    32 ar  
    56    31    37 ar  
    57    32    33 1   
    58    32    34 ar  
    59    33    62 1   
    60    34    35 ar  
    61    34    63 1   
    62    35    36 ar  
    63    35    64 1   
    64    36    37 ar  
    65    36    65 1   
    66    37    38 1   
    67    38    39 1   
    68    38    40 1   
@<TRIPOS>SUBSTRUCTURE
     1 BA1         1 TEMP              0 ****  ****    0 ROOT
