@<TRIPOS>MOLECULE
BA1
   65    68     1     0     0
SMALL
bcc


@<TRIPOS>ATOM
      1 C1           0.9590    -0.8010    -2.8700 c          1 BA1       0.700700
      2 C2           1.8950    -0.1020    -1.9430 ca         1 BA1      -0.185600
      3 C3           2.6550    -0.8780    -1.0670 ca         1 BA1      -0.053000
      4 C4           3.4940    -0.2980    -0.1350 ca         1 BA1      -0.191000
      5 C5           3.5850     1.0890    -0.0590 ca         1 BA1       0.156100
      6 O5           4.4030     1.6160     0.8790 oh         1 BA1      -0.503100
      7 C6           2.8310     1.8800    -0.9190 ca         1 BA1      -0.191000
      8 C7           1.9940     1.2850    -1.8450 ca         1 BA1      -0.053000
      9 O1           0.6870    -1.9840    -2.7090 o          1 BA1      -0.605100
     10 N1           0.4360    -0.0670    -3.8750 ns         1 BA1      -0.564900
     11 N2          -1.7990     0.2210    -6.7750 n7         1 BA1      -0.831200
     12 C10         -0.5530     0.0310    -6.0710 c3         1 BA1       0.164800
     13 C11         -0.7270    -0.4700    -4.6300 c3         1 BA1       0.105700
     14 C12         -2.0430     0.0220    -3.9810 c3         1 BA1       0.146100
     15 C13         -3.2180    -0.9000    -4.3000 c3         1 BA1      -0.087400
     16 C14         -3.7480    -0.8230    -5.7280 c3         1 BA1      -0.069400
     17 C15         -2.6960    -0.9230    -6.8230 c3         1 BA1       0.170800
     18 OAC         -1.8200    -0.0240    -2.5640 os         1 BA1      -0.423900
     19 C1B         -2.3190     0.9060    -1.7700 c          1 BA1       0.658700
     20 OBC         -3.0720     1.7780    -2.1280 o          1 BA1      -0.551000
     21 C2B         -1.8130     0.7740    -0.3730 ca         1 BA1      -0.056600
     22 C3B         -2.1580     1.7560     0.5400 ca         1 BA1      -0.231500
     23 C4B         -1.6500     1.6970     1.8360 ca         1 BA1       0.230100
     24 O4          -2.0110     2.6620     2.6790 oh         1 BA1      -0.494600
     25 C5B         -0.7720     0.6610     2.2290 ca         1 BA1      -0.229600
     26 C6B         -0.4690    -0.3340     1.2820 ca         1 BA1       0.230100
     27 O6           0.3310    -1.3430     1.6410 oh         1 BA1      -0.494600
     28 C7B         -0.9880    -0.2800    -0.0030 ca         1 BA1      -0.231500
     29 C8          -0.1880     0.7040     3.5830 c          1 BA1       0.707300
     30 O8          -0.4920     1.6130     4.3600 o          1 BA1      -0.602100
     31 C9           0.9900    -0.1460     3.9390 ca         1 BA1      -0.131600
     32 CXU          2.2540     0.3320     3.6060 ca         1 BA1       0.132100
     33 OXU          2.3230     1.5170     2.9680 oh         1 BA1      -0.517100
     34 CX4          3.3810    -0.4170     3.9340 ca         1 BA1      -0.245000
     35 CXE          3.2350    -1.6230     4.6050 ca         1 BA1      -0.118000
     36 CXO          1.9750    -2.0910     4.9490 ca         1 BA1      -0.136000
     37 CXY          0.8500    -1.3520     4.6080 ca         1 BA1      -0.069600
     38 CX8         -0.5540    -1.8480     4.8650 c          1 BA1       0.923200
     39 OX8         -0.7010    -2.9120     5.4870 o          1 BA1      -0.805300
     40 OXI         -1.4570    -1.1160     4.3990 o          1 BA1      -0.805300
     41 H3           2.5940    -1.9570    -1.1180 ha         1 BA1       0.140500
     42 H4           4.0760    -0.9160     0.5360 ha         1 BA1       0.146000
     43 HO5          4.4920     2.5690     0.7550 ho         1 BA1       0.428000
     44 H6           2.8820     2.9610    -0.8560 ha         1 BA1       0.146000
     45 H7           1.3980     1.9420    -2.4660 ha         1 BA1       0.140500
     46 HN1          0.7260     0.8920    -3.9790 hn         1 BA1       0.305500
     47 H10         -1.5940     0.5480    -7.7080 hn         1 BA1       0.360800
     48 H21          0.1370    -0.6620    -6.5750 h1         1 BA1       0.030700
     49 H22         -0.0520     1.0030    -6.0410 h1         1 BA1       0.030700
     50 H8          -0.7440    -1.5610    -4.6270 h1         1 BA1       0.087700
     51 H9          -2.2530     1.0510    -4.2820 h1         1 BA1       0.078700
     52 H51         -2.9160    -1.9270    -4.0730 hc         1 BA1       0.057200
     53 H52         -4.0420    -0.6630    -3.6230 hc         1 BA1       0.057200
     54 H61         -4.4860    -1.6190    -5.8570 hc         1 BA1       0.045700
     55 H62         -4.2820     0.1220    -5.8640 hc         1 BA1       0.045700
     56 H71         -2.1620    -1.8840    -6.7660 h1         1 BA1       0.027700
     57 H72         -3.2040    -0.9200    -7.7880 h1         1 BA1       0.027700
     58 H3B         -2.8050     2.5770     0.2630 ha         1 BA1       0.153000
     59 HO4         -1.5400     2.4810     3.5340 ho         1 BA1       0.455000
     60 HO6          0.5450    -1.8850     0.8730 ho         1 BA1       0.455000
     61 H7B         -0.7430    -1.0660    -0.7030 ha         1 BA1       0.153000
     62 H2OA         3.1910     1.6320     2.5580 ho         1 BA1       0.415000
     63 H112         4.3690    -0.0580     3.6690 ha         1 BA1       0.110000
     64 H122         4.1170    -2.1970     4.8560 ha         1 BA1       0.105000
     65 H132         1.8610    -3.0320     5.4700 ha         1 BA1       0.148000
@<TRIPOS>BOND
     1     1     2 1   
     2     1     9 2   
     3     1    10 1   
     4     2     3 ar  
     5     2     8 ar  
     6     3     4 ar  
     7     3    41 1   
     8     4     5 ar  
     9     4    42 1   
    10     5     6 1   
    11     5     7 ar  
    12     6    43 1   
    13     7     8 ar  
    14     7    44 1   
    15     8    45 1   
    16    10    13 1   
    17    10    46 1   
    18    11    12 1   
    19    11    17 1   
    20    11    47 1   
    21    12    13 1   
    22    12    48 1   
    23    12    49 1   
    24    13    14 1   
    25    13    50 1   
    26    14    15 1   
    27    14    18 1   
    28    14    51 1   
    29    15    16 1   
    30    15    52 1   
    31    15    53 1   
    32    16    17 1   
    33    16    54 1   
    34    16    55 1   
    35    17    56 1   
    36    17    57 1   
    37    18    19 1   
    38    19    20 2   
    39    19    21 1   
    40    21    22 ar  
    41    21    28 ar  
    42    22    23 ar  
    43    22    58 1   
    44    23    24 1   
    45    23    25 ar  
    46    24    59 1   
    47    25    26 ar  
    48    25    29 1   
    49    26    27 1   
    50    26    28 ar  
    51    27    60 1   
    52    28    61 1   
    53    29    30 2   
    54    29    31 1   
    55    31    32 ar  
    56    31    37 ar  
    57    32    33 1   
    58    32    34 ar  
    59    33    62 1   
    60    34    35 ar  
    61    34    63 1   
    62    35    36 ar  
    63    35    64 1   
    64    36    37 ar  
    65    36    65 1   
    66    37    38 1   
    67    38    39 1   
    68    38    40 1   
@<TRIPOS>SUBSTRUCTURE
     1 BA1         1 TEMP              0 ****  ****    0 ROOT
