@<TRIPOS>MOLECULE
BA2
   84    88     1     0     0
SMALL
abcg2


@<TRIPOS>ATOM
      1 O31          4.2260    -9.4120    -4.6000 o          1 BA2      -0.569000
      2 C30          3.5870    -8.8770    -3.7080 c          1 BA2       0.613000
      3 N32          2.2310    -8.9110    -3.5570 ns         1 BA2      -0.506900
      4 C33          1.7800    -8.2850    -2.3400 c5         1 BA2       0.092700
      5 C28          3.0840    -7.6420    -1.7810 c5         1 BA2       0.108700
      6 N29          4.0830    -8.1400    -2.6860 ns         1 BA2      -0.528900
      7 C27          2.9460    -6.1160    -1.8100 c5         1 BA2       0.030600
      8 C26          0.7420    -7.1800    -2.5820 c5         1 BA2       0.080300
      9 S25          1.7280    -5.7280    -3.0960 ss         1 BA2      -0.427000
     10 C24         -0.3460    -7.5480    -3.5740 c3         1 BA2      -0.062400
     11 C23         -1.2760    -6.4010    -3.9600 c3         1 BA2      -0.081400
     12 C22         -2.5090    -6.9150    -4.6990 c3         1 BA2      -0.062400
     13 C21         -3.2510    -5.8490    -5.4990 c3         1 BA2      -0.157400
     14 C19         -3.6890    -4.6720    -4.6540 c          1 BA2       0.596100
     15 O20         -4.2550    -4.8230    -3.5790 o          1 BA2      -0.601100
     16 N18         -3.4350    -3.4640    -5.1840 ns         1 BA2      -0.506900
     17 C17         -3.6820    -2.2170    -4.4950 c3         1 BA2       0.102000
     18 C16         -2.5340    -1.8310    -3.5710 c3         1 BA2      -0.111400
     19 C15         -2.7790    -0.5040    -2.8600 c3         1 BA2      -0.085400
     20 C14         -1.5670     0.0050    -2.0950 c3         1 BA2       0.218800
     21 N13         -1.1760    -0.9430    -1.0680 nu         1 BA2      -0.867400
     22 C8          -0.1700    -0.6140    -0.2210 cc         1 BA2       0.632700
     23 N9           0.2880    -1.5190     0.7180 na         1 BA2      -0.327300
     24 C4           1.2940    -0.8760     1.4050 ca         1 BA2       0.144500
     25 C5           1.3480     0.3930     0.8480 ca         1 BA2      -0.070600
     26 N7           0.4380     0.5400    -0.1680 nd         1 BA2      -0.623100
     27 C6           2.3000     1.2720     1.3770 ca         1 BA2       0.428900
     28 N6           2.4270     2.5380     0.9500 nv         1 BA2      -1.061900
     29 N3           2.0760    -1.3220     2.3830 nb         1 BA2      -0.225000
     30 C2           2.9410    -0.4090     2.7980 ca         1 BA2       0.163900
     31 N1           3.0950     0.8340     2.3620 nb         1 BA2      -0.288000
     32 C1          -0.2890    -2.8360     0.9110 c5         1 BA2       0.321300
     33 C10          0.3410    -3.9180     0.0280 c5         1 BA2       0.073300
     34 O2          -0.2950    -3.9400    -1.2210 oh         1 BA2      -0.743000
     35 C3           0.1080    -5.1690     0.8780 c5         1 BA2       0.115300
     36 O3          -1.2110    -5.6260     0.7410 oh         1 BA2      -0.705000
     37 C7           0.3190    -4.6170     2.2800 c5         1 BA2       0.167300
     38 O4          -0.1410    -3.2570     2.2260 os         1 BA2      -0.415000
     39 C9           1.7720    -4.6960     2.7190 c3         1 BA2       0.148800
     40 N10          1.9700    -4.0130     3.9750 n7         1 BA2      -0.847400
     41 C11          3.3280    -4.1500     4.4710 c3         1 BA2       0.158800
     42 C12          3.5180    -3.3600     5.7530 c3         1 BA2      -0.090100
     43 H32          1.7040    -9.6530    -3.9870 hn         1 BA2       0.336500
     44 H29          5.0550    -7.8880    -2.6270 hn         1 BA2       0.347500
     45 H33          1.3600    -9.0190    -1.6470 h1         1 BA2       0.067700
     46 H28          3.2860    -7.9610    -0.7570 h1         1 BA2       0.071700
     47 H26          0.2800    -6.9380    -1.6190 h1         1 BA2       0.067700
     48 H271         2.5960    -5.7530    -0.8430 h1         1 BA2       0.077700
     49 H272         3.8900    -5.6190    -2.0310 h1         1 BA2       0.077700
     50 H241         0.1020    -7.9540    -4.4840 hc         1 BA2       0.056200
     51 H242        -0.9310    -8.3560    -3.1230 hc         1 BA2       0.056200
     52 H231        -0.7310    -5.6930    -4.5940 hc         1 BA2       0.050700
     53 H232        -1.5860    -5.8430    -3.0710 hc         1 BA2       0.050700
     54 H221        -3.1870    -7.3880    -3.9850 hc         1 BA2       0.050700
     55 H222        -2.2130    -7.7010    -5.3990 hc         1 BA2       0.050700
     56 H211        -2.6300    -5.5170    -6.3350 hc         1 BA2       0.058700
     57 H212        -4.1480    -6.2910    -5.9410 hc         1 BA2       0.058700
     58 H18         -2.9020    -3.4200    -6.0370 hn         1 BA2       0.309500
     59 H171        -4.6140    -2.2960    -3.9330 h1         1 BA2       0.056700
     60 H172        -3.8300    -1.4440    -5.2510 h1         1 BA2       0.056700
     61 H161        -1.6110    -1.7740    -4.1560 hc         1 BA2       0.048200
     62 H162        -2.4000    -2.6400    -2.8470 hc         1 BA2       0.048200
     63 H151        -3.6320    -0.5950    -2.1820 hc         1 BA2       0.053700
     64 H152        -3.0430     0.2590    -3.5960 hc         1 BA2       0.053700
     65 H141        -1.8020     0.9570    -1.6180 h1         1 BA2       0.050700
     66 H142        -0.7440     0.1930    -2.7950 h1         1 BA2       0.050700
     67 H13         -1.1600    -1.9070    -1.3750 hn         1 BA2       0.489000
     68 H1          -1.3540    -2.7340     0.6620 h2         1 BA2       0.098700
     69 H6N1         1.9470     2.8410     0.1210 hn         1 BA2       0.499500
     70 H6N2         3.2080     3.0890     1.2620 hn         1 BA2       0.499500
     71 H2           1.4160    -3.7250    -0.0730 h1         1 BA2       0.064700
     72 HA           0.3240    -4.2710    -1.8950 ho         1 BA2       0.540000
     73 H3           0.8330    -5.9660     0.6600 h1         1 BA2       0.044700
     74 HB          -1.4630    -5.5490    -0.1880 ho         1 BA2       0.524000
     75 H4          -0.3020    -5.1430     3.0100 h1         1 BA2       0.107700
     76 H5'1         2.4330    -4.3160     1.9220 h1         1 BA2       0.024200
     77 H5'2         2.0160    -5.7560     2.8430 h1         1 BA2       0.024200
     78 H10          1.8080    -3.0270     3.7930 hn         1 BA2       0.447000
     79 H111         3.5260    -5.2090     4.6610 h1         1 BA2       0.020700
     80 H112         4.0750    -3.8280     3.7280 h1         1 BA2       0.020700
     81 H121         3.3410    -2.2940     5.5910 hc         1 BA2       0.037367
     82 H122         2.8280    -3.6970     6.5280 hc         1 BA2       0.037367
     83 H123         4.5340    -3.4700     6.1320 hc         1 BA2       0.037367
     84 H2C          3.6090    -0.7160     3.5960 h5         1 BA2       0.042100
@<TRIPOS>BOND
     1     1     2 2   
     2     2     3 1   
     3     2     6 1   
     4     3     4 1   
     5     3    43 1   
     6     4     5 1   
     7     4     8 1   
     8     4    45 1   
     9     5     6 1   
    10     5     7 1   
    11     5    46 1   
    12     6    44 1   
    13     7     9 1   
    14     7    48 1   
    15     7    49 1   
    16     8     9 1   
    17     8    10 1   
    18     8    47 1   
    19    10    11 1   
    20    10    50 1   
    21    10    51 1   
    22    11    12 1   
    23    11    52 1   
    24    11    53 1   
    25    12    13 1   
    26    12    54 1   
    27    12    55 1   
    28    13    14 1   
    29    13    56 1   
    30    13    57 1   
    31    14    15 2   
    32    14    16 1   
    33    16    17 1   
    34    16    58 1   
    35    17    18 1   
    36    17    59 1   
    37    17    60 1   
    38    18    19 1   
    39    18    61 1   
    40    18    62 1   
    41    19    20 1   
    42    19    63 1   
    43    19    64 1   
    44    20    21 1   
    45    20    65 1   
    46    20    66 1   
    47    21    22 1   
    48    21    67 1   
    49    22    23 1   
    50    22    26 2   
    51    23    24 1   
    52    23    32 1   
    53    24    25 ar  
    54    24    29 ar  
    55    25    26 1   
    56    25    27 ar  
    57    27    28 1   
    58    27    31 ar  
    59    28    69 1   
    60    28    70 1   
    61    29    30 ar  
    62    30    31 ar  
    63    30    84 1   
    64    32    33 1   
    65    32    38 1   
    66    32    68 1   
    67    33    34 1   
    68    33    35 1   
    69    33    71 1   
    70    34    72 1   
    71    35    36 1   
    72    35    37 1   
    73    35    73 1   
    74    36    74 1   
    75    37    38 1   
    76    37    39 1   
    77    37    75 1   
    78    39    40 1   
    79    39    76 1   
    80    39    77 1   
    81    40    41 1   
    82    40    78 1   
    83    41    42 1   
    84    41    79 1   
    85    41    80 1   
    86    42    81 1   
    87    42    82 1   
    88    42    83 1   
@<TRIPOS>SUBSTRUCTURE
     1 BA2         1 TEMP              0 ****  ****    0 ROOT
