@<TRIPOS>MOLECULE
BA2
   84    88     1     0     0
SMALL
No Charge or Current Charge


@<TRIPOS>ATOM
      1 O31          4.0600    -8.9550    -4.7920 o          1 BA2      -0.569000
      2 C30          3.4740    -8.5800    -3.7960 c          1 BA2       0.613000
      3 N32          2.1820    -8.8470    -3.5000 ns         1 BA2      -0.506900
      4 C33          1.7470    -8.2570    -2.2280 c5         1 BA2       0.092700
      5 C28          3.0590    -7.5100    -1.7460 c5         1 BA2       0.108700
      6 N29          4.0190    -7.8510    -2.7980 ns         1 BA2      -0.528900
      7 C27          2.8490    -5.9670    -1.8920 c5         1 BA2       0.030600
      8 C26          0.6490    -7.1760    -2.5550 c5         1 BA2       0.080300
      9 S25          1.5640    -5.7030    -3.2030 ss         1 BA2      -0.427000
     10 C24         -0.4970    -7.6300    -3.5050 c3         1 BA2      -0.062400
     11 C23         -1.5210    -6.5360    -3.8930 c3         1 BA2      -0.081400
     12 C22         -2.7970    -7.1260    -4.5420 c3         1 BA2      -0.062400
     13 C21         -3.6740    -6.1080    -5.3140 c3         1 BA2      -0.157400
     14 C19         -3.9290    -4.8020    -4.5520 c          1 BA2       0.596100
     15 O20         -4.5930    -4.7530    -3.5270 o          1 BA2      -0.601100
     16 N18         -3.3930    -3.6810    -5.1460 ns         1 BA2      -0.506900
     17 C17         -3.4660    -2.3240    -4.6060 c3         1 BA2       0.102000
     18 C16         -2.2200    -1.9900    -3.7680 c3         1 BA2      -0.111400
     19 C15         -2.2380    -0.5500    -3.2020 c3         1 BA2      -0.085400
     20 C14         -0.9380    -0.1340    -2.4820 c3         1 BA2       0.218800
     21 N13         -0.7150    -0.9560    -1.2890 nu         1 BA2      -0.867400
     22 C8           0.0170    -0.5980    -0.2010 cc         1 BA2       0.632700
     23 N9           0.2640    -1.4600     0.8580 na         1 BA2      -0.327300
     24 C4           1.0690    -0.7790     1.7370 ca         1 BA2       0.144500
     25 C5           1.2500     0.4640     1.1730 ca         1 BA2      -0.070600
     26 N7           0.5890     0.5970    -0.0550 nd         1 BA2      -0.623100
     27 C6           2.0500     1.4000     1.8630 ca         1 BA2       0.428900
     28 N6           2.2920     2.6530     1.3860 nv         1 BA2      -1.061900
     29 N3           1.6400    -1.1170     2.9120 nb         1 BA2      -0.225000
     30 C2           2.3940    -0.1590     3.5010 ca         1 BA2       0.163900
     31 N1           2.6300     1.0900     3.0330 nb         1 BA2      -0.288000
     32 C1          -0.2980    -2.8060     0.9640 c5         1 BA2       0.321300
     33 C10          0.3120    -3.8600    -0.0220 c5         1 BA2       0.073300
     34 O2          -0.3020    -3.8560    -1.3280 oh         1 BA2      -0.743000
     35 C3           0.0130    -5.1730     0.7490 c5         1 BA2       0.115300
     36 O3          -1.3600    -5.5390     0.5710 oh         1 BA2      -0.705000
     37 C7           0.3530    -4.7150     2.2040 c5         1 BA2       0.167300
     38 O4          -0.1580    -3.3570     2.2960 os         1 BA2      -0.415000
     39 C9           1.8760    -4.7210     2.5340 c3         1 BA2       0.148800
     40 N10          2.1530    -4.1920     3.8850 n7         1 BA2      -0.847400
     41 C11          3.5760    -4.0440     4.2210 c3         1 BA2       0.158800
     42 C12          3.7230    -3.4850     5.6440 c3         1 BA2      -0.090100
     43 H32          1.6290    -9.4000    -4.1410 hn         1 BA2       0.336500
     44 H29          4.9880    -7.5650    -2.8610 hn         1 BA2       0.347500
     45 H33          1.3980    -9.0150    -1.5130 h1         1 BA2       0.067700
     46 H28          3.3940    -7.8100    -0.7440 h1         1 BA2       0.071700
     47 H26          0.1750    -6.8720    -1.6140 h1         1 BA2       0.067700
     48 H271         2.4840    -5.5500    -0.9460 h1         1 BA2       0.077700
     49 H272         3.7770    -5.4360    -2.1430 h1         1 BA2       0.077700
     50 H241        -0.0850    -8.0320    -4.4380 hc         1 BA2       0.056200
     51 H242        -1.0320    -8.4590    -3.0250 hc         1 BA2       0.056200
     52 H231        -1.0470    -5.8350    -4.5910 hc         1 BA2       0.050700
     53 H232        -1.8030    -5.9620    -3.0010 hc         1 BA2       0.050700
     54 H221        -3.4030    -7.5960    -3.7560 hc         1 BA2       0.050700
     55 H222        -2.5170    -7.9290    -5.2360 hc         1 BA2       0.050700
     56 H211        -3.1850    -5.8870    -6.2700 hc         1 BA2       0.058700
     57 H212        -4.6410    -6.5810    -5.5220 hc         1 BA2       0.058700
     58 H18         -2.8760    -3.8280    -6.0050 hn         1 BA2       0.309500
     59 H171        -4.3700    -2.2180    -3.9910 h1         1 BA2       0.056700
     60 H172        -3.5450    -1.6190    -5.4450 h1         1 BA2       0.056700
     61 H161        -1.3240    -2.1250    -4.3880 hc         1 BA2       0.048200
     62 H162        -2.1530    -2.7090    -2.9430 hc         1 BA2       0.048200
     63 H151        -3.0860    -0.4360    -2.5140 hc         1 BA2       0.053700
     64 H152        -2.4070     0.1530    -4.0270 hc         1 BA2       0.053700
     65 H141        -1.0200     0.9260    -2.2020 h1         1 BA2       0.050700
     66 H142        -0.0890    -0.2320    -3.1720 h1         1 BA2       0.050700
     67 H13         -0.7590    -1.9720    -1.4100 hn         1 BA2       0.489000
     68 H1          -1.3700    -2.6990     0.7540 h2         1 BA2       0.098700
     69 H6N1         2.0420     2.8260     0.4160 hn         1 BA2       0.499500
     70 H6N2         3.0910     3.1640     1.7520 hn         1 BA2       0.499500
     71 H2           1.3940    -3.6940    -0.1130 h1         1 BA2       0.064700
     72 HA           0.3090    -4.3290    -1.9530 ho         1 BA2       0.540000
     73 H3           0.6690    -5.9940     0.4300 h1         1 BA2       0.044700
     74 HB          -1.6130    -5.1080    -0.2820 ho         1 BA2       0.524000
     75 H4          -0.1570    -5.3440     2.9450 h1         1 BA2       0.107700
     76 H5'1         2.4080    -4.1160     1.7870 h1         1 BA2       0.024200
     77 H5'2         2.2500    -5.7500     2.4480 h1         1 BA2       0.024200
     78 H10          1.7200    -3.2580     3.9280 hn         1 BA2       0.447000
     79 H111         4.0860    -5.0150     4.1630 h1         1 BA2       0.020700
     80 H112         4.0660    -3.3610     3.5150 h1         1 BA2       0.020700
     81 H121         3.2410    -2.5040     5.7310 hc         1 BA2       0.037367
     82 H122         3.2690    -4.1630     6.3770 hc         1 BA2       0.037367
     83 H123         4.7840    -3.3680     5.8970 hc         1 BA2       0.037367
     84 H2C          2.8600    -0.4190     4.4500 h5         1 BA2       0.042100
@<TRIPOS>BOND
     1     1     2 2   
     2     2     3 1   
     3     2     6 1   
     4     3     4 1   
     5     3    43 1   
     6     4     5 1   
     7     4     8 1   
     8     4    45 1   
     9     5     6 1   
    10     5     7 1   
    11     5    46 1   
    12     6    44 1   
    13     7     9 1   
    14     7    48 1   
    15     7    49 1   
    16     8     9 1   
    17     8    10 1   
    18     8    47 1   
    19    10    11 1   
    20    10    50 1   
    21    10    51 1   
    22    11    12 1   
    23    11    52 1   
    24    11    53 1   
    25    12    13 1   
    26    12    54 1   
    27    12    55 1   
    28    13    14 1   
    29    13    56 1   
    30    13    57 1   
    31    14    15 2   
    32    14    16 1   
    33    16    17 1   
    34    16    58 1   
    35    17    18 1   
    36    17    59 1   
    37    17    60 1   
    38    18    19 1   
    39    18    61 1   
    40    18    62 1   
    41    19    20 1   
    42    19    63 1   
    43    19    64 1   
    44    20    21 1   
    45    20    65 1   
    46    20    66 1   
    47    21    22 1   
    48    21    67 1   
    49    22    23 1   
    50    22    26 2   
    51    23    24 1   
    52    23    32 1   
    53    24    25 ar  
    54    24    29 ar  
    55    25    26 1   
    56    25    27 ar  
    57    27    28 1   
    58    27    31 ar  
    59    28    69 1   
    60    28    70 1   
    61    29    30 ar  
    62    30    31 ar  
    63    30    84 1   
    64    32    33 1   
    65    32    38 1   
    66    32    68 1   
    67    33    34 1   
    68    33    35 1   
    69    33    71 1   
    70    34    72 1   
    71    35    36 1   
    72    35    37 1   
    73    35    73 1   
    74    36    74 1   
    75    37    38 1   
    76    37    39 1   
    77    37    75 1   
    78    39    40 1   
    79    39    76 1   
    80    39    77 1   
    81    40    41 1   
    82    40    78 1   
    83    41    42 1   
    84    41    79 1   
    85    41    80 1   
    86    42    81 1   
    87    42    82 1   
    88    42    83 1   
@<TRIPOS>SUBSTRUCTURE
     1 BA2         1 TEMP              0 ****  ****    0 ROOT
