@<TRIPOS>MOLECULE
BA3
   73    78     1     0     0
SMALL
No Charge or Current Charge


@<TRIPOS>ATOM
      1 N9A         42.8890    31.8590    65.7100 na         1 BA3      -0.280300
      2 C8A         42.1390    31.0180    66.5420 cc         1 BA3       0.473700
      3 N7A         40.9230    31.5460    66.8030 nd         1 BA3      -0.590600
      4 C5A         40.9370    32.7540    66.0990 ca         1 BA3      -0.081600
      5 C6A         39.9360    33.7440    65.9890 ca         1 BA3       0.431400
      6 N6A         38.7280    33.6450    66.6050 nv         1 BA3      -1.083900
      7 N1A         40.1280    34.8480    65.2500 nb         1 BA3      -0.332500
      8 C2A         41.3300    34.9480    64.6320 ca         1 BA3       0.142400
      9 N3A         42.3460    34.0530    64.6840 nb         1 BA3      -0.207000
     10 C4A         42.1200    32.9540    65.4310 ca         1 BA3       0.098500
     11 O5B         43.8970    28.3060    65.7410 os         1 BA3      -0.619900
     12 C5B         44.6840    28.3310    64.5370 c3         1 BA3       0.220600
     13 C4B         45.3030    29.7410    64.2720 c5         1 BA3       0.115300
     14 O4B         44.2520    30.7370    64.1280 os         1 BA3      -0.453500
     15 C3B         46.2720    30.3040    65.3650 c5         1 BA3       0.164800
     16 O3B         47.2080    31.2600    64.8490 oh         1 BA3      -0.746500
     17 C2B         45.2800    31.0370    66.3090 c5         1 BA3       0.097800
     18 O2B         45.9670    32.0480    67.0810 oh         1 BA3      -0.702500
     19 C1B         44.2630    31.6270    65.2670 c5         1 BA3       0.279800
     20 PE          44.3530    27.3870    66.9840 p5         1 BA3       1.486800
     21 O1E         45.7930    27.6320    67.2740 o          1 BA3      -0.858000
     22 O2E         43.4580    27.7000    68.1350 o          1 BA3      -0.858000
     23 O3E         44.0230    26.0150    66.2970 os         1 BA3      -0.723300
     24 PF          44.5800    24.7380    67.0300 p5         1 BA3       1.536800
     25 O1F         43.8240    23.5280    66.5900 o          1 BA3      -0.873500
     26 O2F         44.4960    24.8240    68.5180 o          1 BA3      -0.873500
     27 O3F         46.0880    24.7300    66.5780 os         1 BA3      -0.723300
     28 PG          46.3490    24.2260    65.1140 p5         1 BA3       1.486800
     29 O1G         45.5780    24.9320    64.0510 o          1 BA3      -0.858000
     30 O2G         46.3120    22.7410    64.9830 o          1 BA3      -0.858000
     31 O5D         47.8880    24.7020    65.0430 os         1 BA3      -0.619900
     32 C5D         48.2200    26.1050    64.9940 c3         1 BA3       0.220600
     33 C4D         48.6050    26.5690    63.5530 c5         1 BA3       0.115300
     34 O4D         50.0070    26.3340    63.2980 os         1 BA3      -0.453500
     35 C3D         47.9130    25.8860    62.3380 c5         1 BA3       0.164800
     36 O3D         46.5400    26.2740    62.1610 oh         1 BA3      -0.746500
     37 C2D         48.8080    26.4280    61.1830 c5         1 BA3       0.097800
     38 O2D         48.3590    27.7430    60.8210 oh         1 BA3      -0.702500
     39 C1D         50.2300    26.4200    61.8690 c5         1 BA3       0.279800
     40 N9G         51.1590    25.3550    61.4900 na         1 BA3      -0.280300
     41 C8G         50.8150    24.0410    61.1440 cc         1 BA3       0.473700
     42 N7G         51.9060    23.3220    60.8030 nd         1 BA3      -0.590600
     43 C5G         52.9540    24.2360    60.9520 ca         1 BA3      -0.081600
     44 C6G         54.3380    24.0600    60.7350 ca         1 BA3       0.431400
     45 N6G         54.8780    22.8830    60.3200 nv         1 BA3      -1.083900
     46 N1G         55.2040    25.0690    60.9210 nb         1 BA3      -0.332500
     47 C2G         54.6680    26.2450    61.3290 ca         1 BA3       0.142400
     48 N3G         53.3590    26.5020    61.5640 nb         1 BA3      -0.207000
     49 C4G         52.5150    25.4690    61.3660 ca         1 BA3       0.098500
     50 H8A         42.5140    30.0710    66.9120 h5         1 BA3       0.137300
     51 H6A1        37.9680    34.2240    66.2580 hn         1 BA3       0.494500
     52 H6A2        38.4760    32.7350    66.9840 hn         1 BA3       0.494500
     53 H2A         41.4980    35.8410    64.0310 h5         1 BA3       0.020100
     54 H5B1        45.4980    27.5980    64.5740 h1         1 BA3       0.063450
     55 H5B2        44.0570    28.0630    63.6760 h1         1 BA3       0.063450
     56 H4B         45.8340    29.6670    63.3140 h1         1 BA3       0.074200
     57 H3B         46.8040    29.4970    65.8880 h1         1 BA3       0.087700
     58 H3          47.2120    31.9500    65.5640 ho         1 BA3       0.555500
     59 H2B         44.7900    30.3180    66.9760 h1         1 BA3       0.078700
     60 H2          45.3380    32.3820    67.7640 ho         1 BA3       0.488500
     61 H1B         44.6370    32.6020    64.9300 h2         1 BA3       0.072200
     62 H5D1        47.3750    26.7150    65.3340 h1         1 BA3       0.063450
     63 H5D2        49.0570    26.3240    65.6700 h1         1 BA3       0.063450
     64 H4D         48.4430    27.6560    63.5160 h1         1 BA3       0.074200
     65 H3D         48.0020    24.7920    62.4100 h1         1 BA3       0.087700
     66 H4          46.0350    25.7460    62.8750 ho         1 BA3       0.555500
     67 H1          48.7740    25.7630    60.3090 h1         1 BA3       0.078700
     68 H2D         47.3990    27.7210    61.0670 ho         1 BA3       0.488500
     69 H1D         50.7460    27.3600    61.6350 h2         1 BA3       0.072200
     70 H8G         49.7930    23.6790    61.1610 h5         1 BA3       0.137300
     71 H6G1        55.8080    22.9040    59.9100 hn         1 BA3       0.494500
     72 H6G2        54.2350    22.1790    59.9660 hn         1 BA3       0.494500
     73 H5          55.3620    27.0700    61.4840 h5         1 BA3       0.020100
@<TRIPOS>BOND
     1     1     2 1   
     2     1    10 1   
     3     1    19 1   
     4     2     3 2   
     5     2    50 1   
     6     3     4 1   
     7     4     5 ar  
     8     4    10 ar  
     9     5     6 1   
    10     5     7 ar  
    11     6    51 1   
    12     6    52 1   
    13     7     8 ar  
    14     8     9 ar  
    15     8    53 1   
    16     9    10 ar  
    17    11    12 1   
    18    11    20 1   
    19    12    13 1   
    20    12    54 1   
    21    12    55 1   
    22    13    14 1   
    23    13    15 1   
    24    13    56 1   
    25    14    19 1   
    26    15    16 1   
    27    15    17 1   
    28    15    57 1   
    29    16    58 1   
    30    17    18 1   
    31    17    19 1   
    32    17    59 1   
    33    18    60 1   
    34    19    61 1   
    35    20    21 1   
    36    20    22 1   
    37    20    23 1   
    38    23    24 1   
    39    24    25 1   
    40    24    26 1   
    41    24    27 1   
    42    27    28 1   
    43    28    29 1   
    44    28    30 1   
    45    28    31 1   
    46    31    32 1   
    47    32    33 1   
    48    32    62 1   
    49    32    63 1   
    50    33    34 1   
    51    33    35 1   
    52    33    64 1   
    53    34    39 1   
    54    35    36 1   
    55    35    37 1   
    56    35    65 1   
    57    36    66 1   
    58    37    38 1   
    59    37    39 1   
    60    37    67 1   
    61    38    68 1   
    62    39    40 1   
    63    39    69 1   
    64    40    41 1   
    65    40    49 1   
    66    41    42 2   
    67    41    70 1   
    68    42    43 1   
    69    43    44 ar  
    70    43    49 ar  
    71    44    45 1   
    72    44    46 ar  
    73    45    71 1   
    74    45    72 1   
    75    46    47 ar  
    76    47    48 ar  
    77    47    73 1   
    78    48    49 ar  
@<TRIPOS>SUBSTRUCTURE
     1 BA3         1 TEMP              0 ****  ****    0 ROOT
