@<TRIPOS>MOLECULE
BA3
   73    78     1     0     0
SMALL
bcc


@<TRIPOS>ATOM
      1 N9A         42.4910    31.7790    65.4180 na         1 BA3      -0.251000
      2 C8A         41.6380    30.8090    65.8740 cc         1 BA3       0.473700
      3 N7A         40.4140    31.2240    66.0140 nd         1 BA3      -0.590600
      4 C5A         40.4520    32.5400    65.6290 ca         1 BA3      -0.212200
      5 C6A         39.4700    33.5440    65.5480 ca         1 BA3       0.759700
      6 N6A         38.1970    33.3410    65.8930 nv         1 BA3      -0.973500
      7 N1A         39.8430    34.7530    65.1130 nb         1 BA3      -0.858500
      8 C2A         41.1150    34.9570    64.7810 ca         1 BA3       0.668400
      9 N3A         42.1220    34.1020    64.8180 nb         1 BA3      -0.733000
     10 C4A         41.7350    32.9040    65.2490 ca         1 BA3       0.426800
     11 O5B         44.0840    28.2680    65.9000 os         1 BA3      -0.596700
     12 C5B         44.8860    28.4090    64.7480 c3         1 BA3       0.197400
     13 C4B         45.2500    29.8550    64.4990 c5         1 BA3       0.092100
     14 O4B         44.0770    30.6180    64.1960 os         1 BA3      -0.407100
     15 C3B         45.9260    30.5560    65.6770 c5         1 BA3       0.141600
     16 O3B         46.8480    31.4870    65.1610 oh         1 BA3      -0.624300
     17 C2B         44.7480    31.2550    66.3490 c5         1 BA3       0.074600
     18 O2B         45.1610    32.3510    67.1090 oh         1 BA3      -0.580300
     19 C1B         43.8970    31.6400    65.1320 c5         1 BA3       0.227300
     20 PE          44.5140    27.2160    67.0920 p5         1 BA3       1.486800
     21 O1E         45.9610    27.4010    67.4360 o          1 BA3      -0.858000
     22 O2E         43.4410    27.3340    68.1230 o          1 BA3      -0.858000
     23 O3E         44.3200    25.8320    66.2190 os         1 BA3      -0.723300
     24 PF          44.8180    24.3160    66.6090 p5         1 BA3       1.536800
     25 O1F         44.0980    23.3940    65.6800 o          1 BA3      -0.873500
     26 O2F         44.7890    24.1470    68.0920 o          1 BA3      -0.873500
     27 O3F         46.4140    24.3580    66.1960 os         1 BA3      -0.723300
     28 PG          47.0720    24.1710    64.7090 p5         1 BA3       1.486800
     29 O1G         46.3840    25.1020    63.7390 o          1 BA3      -0.858000
     30 O2G         47.2470    22.7280    64.3830 o          1 BA3      -0.858000
     31 O5D         48.5740    24.7380    65.0580 os         1 BA3      -0.596700
     32 C5D         48.7600    26.0990    65.3920 c3         1 BA3       0.197400
     33 C4D         49.3680    26.9170    64.2740 c5         1 BA3       0.092100
     34 O4D         50.7570    26.6160    64.0970 os         1 BA3      -0.407100
     35 C3D         48.7770    26.7080    62.8800 c5         1 BA3       0.141600
     36 O3D         47.5130    27.2470    62.6920 oh         1 BA3      -0.624300
     37 C2D         49.8760    27.2900    62.0090 c5         1 BA3       0.074600
     38 O2D         49.8280    28.6880    62.0780 oh         1 BA3      -0.580300
     39 C1D         51.1080    26.7340    62.7510 c5         1 BA3       0.227300
     40 N9G         51.4960    25.4230    62.2450 na         1 BA3      -0.251000
     41 C8G         51.1800    24.1880    62.7420 cc         1 BA3       0.473700
     42 N7G         51.6550    23.2080    62.0270 nd         1 BA3      -0.590600
     43 C5G         52.3170    23.8260    60.9980 ca         1 BA3      -0.212200
     44 C6G         53.0280    23.3430    59.8850 ca         1 BA3       0.759700
     45 N6G         53.1890    22.0410    59.6390 nv         1 BA3      -0.973500
     46 N1G         53.5590    24.2370    59.0440 nb         1 BA3      -0.858500
     47 C2G         53.3980    25.5350    59.2890 ca         1 BA3       0.668400
     48 N3G         52.7520    26.1080    60.2890 nb         1 BA3      -0.733000
     49 C4G         52.2290    25.2040    61.1170 ca         1 BA3       0.426800
     50 H8A         41.9830    29.8060    66.0810 h5         1 BA3       0.137300
     51 H6A1        37.5160    34.0690    65.7590 hn         1 BA3       0.439300
     52 H6A2        37.8710    32.4280    66.1600 hn         1 BA3       0.439300
     53 H2A         41.3520    35.9590    64.4370 h5         1 BA3       0.020100
     54 H5B1        45.8180    27.8430    64.8160 h1         1 BA3       0.063450
     55 H5B2        44.3430    28.0230    63.8780 h1         1 BA3       0.063450
     56 H4B         45.9160    29.8720    63.6280 h1         1 BA3       0.074200
     57 H3B         46.4090    29.8370    66.3490 h1         1 BA3       0.087700
     58 H3          47.1810    32.0180    65.8920 ho         1 BA3       0.456500
     59 H2B         44.2090    30.5220    66.9590 h1         1 BA3       0.078700
     60 H2          44.4610    32.5850    67.7260 ho         1 BA3       0.389500
     61 H1B         44.2240    32.6110    64.7420 h2         1 BA3       0.072200
     62 H5D1        47.8260    26.5850    65.6860 h1         1 BA3       0.063450
     63 H5D2        49.4140    26.1470    66.2680 h1         1 BA3       0.063450
     64 H4D         49.2630    27.9700    64.5690 h1         1 BA3       0.074200
     65 H3D         48.7700    25.6290    62.6720 h1         1 BA3       0.087700
     66 H4          46.9140    26.5480    63.0490 ho         1 BA3       0.456500
     67 H1          49.8370    26.9280    60.9750 h1         1 BA3       0.078700
     68 H2D         50.5210    29.0480    61.5150 ho         1 BA3       0.389500
     69 H1D         51.9780    27.3880    62.6320 h2         1 BA3       0.072200
     70 H8G         50.5870    24.0690    63.6350 h5         1 BA3       0.137300
     71 H6G1        53.6780    21.7370    58.8150 hn         1 BA3       0.439300
     72 H6G2        52.7770    21.3440    60.2350 hn         1 BA3       0.439300
     73 H5          53.8560    26.2050    58.5690 h5         1 BA3       0.020100
@<TRIPOS>BOND
     1     1     2 1   
     2     1    10 1   
     3     1    19 1   
     4     2     3 2   
     5     2    50 1   
     6     3     4 1   
     7     4     5 ar  
     8     4    10 ar  
     9     5     6 1   
    10     5     7 ar  
    11     6    51 1   
    12     6    52 1   
    13     7     8 ar  
    14     8     9 ar  
    15     8    53 1   
    16     9    10 ar  
    17    11    12 1   
    18    11    20 1   
    19    12    13 1   
    20    12    54 1   
    21    12    55 1   
    22    13    14 1   
    23    13    15 1   
    24    13    56 1   
    25    14    19 1   
    26    15    16 1   
    27    15    17 1   
    28    15    57 1   
    29    16    58 1   
    30    17    18 1   
    31    17    19 1   
    32    17    59 1   
    33    18    60 1   
    34    19    61 1   
    35    20    21 1   
    36    20    22 1   
    37    20    23 1   
    38    23    24 1   
    39    24    25 1   
    40    24    26 1   
    41    24    27 1   
    42    27    28 1   
    43    28    29 1   
    44    28    30 1   
    45    28    31 1   
    46    31    32 1   
    47    32    33 1   
    48    32    62 1   
    49    32    63 1   
    50    33    34 1   
    51    33    35 1   
    52    33    64 1   
    53    34    39 1   
    54    35    36 1   
    55    35    37 1   
    56    35    65 1   
    57    36    66 1   
    58    37    38 1   
    59    37    39 1   
    60    37    67 1   
    61    38    68 1   
    62    39    40 1   
    63    39    69 1   
    64    40    41 1   
    65    40    49 1   
    66    41    42 2   
    67    41    70 1   
    68    42    43 1   
    69    43    44 ar  
    70    43    49 ar  
    71    44    45 1   
    72    44    46 ar  
    73    45    71 1   
    74    45    72 1   
    75    46    47 ar  
    76    47    48 ar  
    77    47    73 1   
    78    48    49 ar  
@<TRIPOS>SUBSTRUCTURE
     1 BA3         1 TEMP              0 ****  ****    0 ROOT
