@<TRIPOS>MOLECULE
BA4
   50    51     1     0     0
SMALL
abcg2


@<TRIPOS>ATOM
      1 OAR         -2.4740    -0.7710     0.0810 o          1 BA4      -0.481000
      2 CAP         -2.1510     0.3710    -0.1060 c          1 BA4       0.654100
      3 NAO         -2.9650     1.4490    -0.2200 ns         1 BA4      -0.149000
      4 CAS         -4.3560     1.4900    -0.0740 ca         1 BA4      -0.005000
      5 CAT         -4.9300     2.7510     0.0980 ca         1 BA4      -0.150000
      6 CAU         -6.3010     2.8900     0.2330 ca         1 BA4      -0.083000
      7 CAV         -7.1260     1.7730     0.2030 ca         1 BA4      -0.138000
      8 CAW         -6.5550     0.5210     0.0280 ca         1 BA4      -0.083000
      9 CAX         -5.1820     0.3660    -0.1150 ca         1 BA4      -0.150000
     10 OAQ         -0.8780     0.8080    -0.2390 os         1 BA4      -0.301100
     11 NAY          0.0510    -0.2080    -0.1390 n2         1 BA4      -0.306700
     12 CAA          1.2340     0.2540    -0.1730 c2         1 BA4       0.544600
     13 OAL          1.5000     1.5400    -0.3610 os         1 BA4      -0.430600
     14 CAE          2.6350     2.1340     0.2910 c6         1 BA4       0.154300
     15 CAF          2.8450     3.4860    -0.3500 c3         1 BA4       0.169600
     16 OAM          1.7100     4.2820    -0.1170 oh         1 BA4      -0.640000
     17 CAD          3.8680     1.2390     0.1800 c6         1 BA4       0.099300
     18 OAK          4.9110     1.7450     0.9750 oh         1 BA4      -0.658000
     19 CAC          3.5360    -0.1570     0.6930 c6         1 BA4       0.160300
     20 OAJ          4.6170    -1.0330     0.5600 oh         1 BA4      -0.638000
     21 CAB          2.3820    -0.7300    -0.1250 c6         1 BA4       0.058400
     22 NAI          1.9770    -2.0140     0.3580 ns         1 BA4      -0.486900
     23 CAG          1.7820    -3.0850    -0.4380 c          1 BA4       0.620100
     24 OAN          1.9600    -3.0540    -1.6450 o          1 BA4      -0.595100
     25 CAH          1.3670    -4.3420     0.2950 c3         1 BA4      -0.152400
     26 C1           0.5120    -5.2810    -0.5450 c3         1 BA4      -0.066400
     27 C2           0.1550    -6.5480     0.2180 c3         1 BA4      -0.091100
     28 HNAO        -2.5130     2.3450    -0.3280 hn         1 BA4       0.168000
     29 HAT         -4.2950     3.6290     0.1290 ha         1 BA4       0.128500
     30 HAU         -6.7220     3.8780     0.3670 ha         1 BA4       0.113000
     31 HAV         -8.1970     1.8780     0.3100 ha         1 BA4       0.114000
     32 HAW         -7.1840    -0.3580    -0.0040 ha         1 BA4       0.113000
     33 HAX         -4.7750    -0.6210    -0.2610 ha         1 BA4       0.128500
     34 HAE          2.3890     2.2650     1.3520 h1         1 BA4       0.078700
     35 HAF          3.7470     3.9290     0.0880 h1         1 BA4       0.029700
     36 HAD          4.1700     1.1620    -0.8740 h1         1 BA4       0.062700
     37 HOAK         5.4890     2.2900     0.4350 ho         1 BA4       0.456000
     38 HAC          3.2180    -0.0700     1.7460 h1         1 BA4       0.049700
     39 HOAJ         5.3500    -0.6820     1.0780 ho         1 BA4       0.461000
     40 HAB          2.7330    -0.8540    -1.1550 h1         1 BA4       0.120700
     41 HNAI         1.7380    -2.0900     1.3350 hn         1 BA4       0.319500
     42 HAH          2.2840    -4.8560     0.6030 hc         1 BA4       0.056700
     43 HAHA         0.8440    -4.0840     1.2200 hc         1 BA4       0.056700
     44 H1          -0.4030    -4.7680    -0.8530 hc         1 BA4       0.057700
     45 H1A          1.0440    -5.5400    -1.4620 hc         1 BA4       0.057700
     46 H2           1.0520    -7.0920     0.5210 hc         1 BA4       0.032033
     47 H2A         -0.4110    -6.3220     1.1230 hc         1 BA4       0.032033
     48 H2B         -0.4490    -7.2200    -0.3920 hc         1 BA4       0.032033
     49 H22          3.0410     3.3470    -1.4220 h1         1 BA4       0.029700
     50 H23          1.8750     5.1510    -0.4940 ho         1 BA4       0.448000
@<TRIPOS>BOND
     1     1     2 2   
     2     2     3 1   
     3     2    10 1   
     4     3     4 1   
     5     3    28 1   
     6     4     5 ar  
     7     4     9 ar  
     8     5     6 ar  
     9     5    29 1   
    10     6     7 ar  
    11     6    30 1   
    12     7     8 ar  
    13     7    31 1   
    14     8     9 ar  
    15     8    32 1   
    16     9    33 1   
    17    10    11 1   
    18    11    12 2   
    19    12    13 1   
    20    12    21 1   
    21    13    14 1   
    22    14    15 1   
    23    14    17 1   
    24    14    34 1   
    25    15    16 1   
    26    15    35 1   
    27    15    49 1   
    28    16    50 1   
    29    17    18 1   
    30    17    19 1   
    31    17    36 1   
    32    18    37 1   
    33    19    20 1   
    34    19    21 1   
    35    19    38 1   
    36    20    39 1   
    37    21    22 1   
    38    21    40 1   
    39    22    23 1   
    40    22    41 1   
    41    23    24 2   
    42    23    25 1   
    43    25    26 1   
    44    25    42 1   
    45    25    43 1   
    46    26    27 1   
    47    26    44 1   
    48    26    45 1   
    49    27    46 1   
    50    27    47 1   
    51    27    48 1   
@<TRIPOS>SUBSTRUCTURE
     1 BA4         1 TEMP              0 ****  ****    0 ROOT
