@<TRIPOS>MOLECULE
BA4
   50    51     1     0     0
SMALL
No Charge or Current Charge


@<TRIPOS>ATOM
      1 OAR         -2.4310    -1.0330    -0.1460 o          1 BA4      -0.481000
      2 CAP         -2.1120     0.1490    -0.2100 c          1 BA4       0.654100
      3 NAO         -2.9780     1.2290    -0.2360 ns         1 BA4      -0.149000
      4 CAS         -4.3960     1.3200    -0.2010 ca         1 BA4      -0.005000
      5 CAT         -4.9690     2.6050    -0.2420 ca         1 BA4      -0.150000
      6 CAU         -6.3650     2.7710    -0.2100 ca         1 BA4      -0.083000
      7 CAV         -7.2020     1.6470    -0.1370 ca         1 BA4      -0.138000
      8 CAW         -6.6430     0.3600    -0.0950 ca         1 BA4      -0.083000
      9 CAX         -5.2470     0.1940    -0.1270 ca         1 BA4      -0.150000
     10 OAQ         -0.8170     0.6190    -0.2680 os         1 BA4      -0.301100
     11 NAY          0.2150    -0.3780    -0.2550 n2         1 BA4      -0.306700
     12 CAA          1.4230     0.0880    -0.3020 c2         1 BA4       0.544600
     13 OAL          1.6260     1.4520    -0.3710 os         1 BA4      -0.430600
     14 CAE          2.6540     2.0630     0.4510 c6         1 BA4       0.154300
     15 CAF          2.7780     3.5660     0.0370 c3         1 BA4       0.169600
     16 OAM          1.5270     4.2750     0.1000 oh         1 BA4      -0.640000
     17 CAD          4.0000     1.2850     0.3460 c6         1 BA4       0.099300
     18 OAK          5.0000     1.8160     1.2430 oh         1 BA4      -0.658000
     19 CAC          3.7330    -0.2050     0.6850 c6         1 BA4       0.160300
     20 OAJ          4.9640    -0.9420     0.6340 oh         1 BA4      -0.638000
     21 CAB          2.6900    -0.7950    -0.2980 c6         1 BA4       0.058400
     22 NAI          2.4210    -2.2320    -0.0020 ns         1 BA4      -0.486900
     23 CAG          1.7720    -3.1110    -0.8380 c          1 BA4       0.620100
     24 OAN          1.4300    -2.7960    -1.9690 o          1 BA4      -0.595100
     25 CAH          1.5540    -4.5160    -0.2690 c3         1 BA4      -0.152400
     26 C1           0.0710    -4.7490     0.1060 c3         1 BA4      -0.066400
     27 C2          -0.1890    -6.1500     0.6910 c3         1 BA4      -0.091100
     28 HNAO        -2.5080     2.1230    -0.2910 hn         1 BA4       0.168000
     29 HAT         -4.3310     3.4850    -0.2990 ha         1 BA4       0.128500
     30 HAU         -6.7960     3.7690    -0.2430 ha         1 BA4       0.113000
     31 HAV         -8.2820     1.7730    -0.1130 ha         1 BA4       0.114000
     32 HAW         -7.2920    -0.5120    -0.0380 ha         1 BA4       0.113000
     33 HAX         -4.8500    -0.8150    -0.0930 ha         1 BA4       0.128500
     34 HAE          2.3150     2.0310     1.4970 h1         1 BA4       0.078700
     35 HAF          3.5090     4.0490     0.6980 h1         1 BA4       0.029700
     36 HAD          4.3570     1.3480    -0.6940 h1         1 BA4       0.062700
     37 HOAK         5.4300     2.5810     0.7960 ho         1 BA4       0.456000
     38 HAC          3.3170    -0.2580     1.7020 h1         1 BA4       0.049700
     39 HOAJ         5.6290    -0.3500     1.0550 ho         1 BA4       0.461000
     40 HAB          3.1130    -0.7410    -1.3110 h1         1 BA4       0.120700
     41 HNAI         2.7160    -2.6000     0.8960 hn         1 BA4       0.319500
     42 HAH          1.8400    -5.2510    -1.0310 hc         1 BA4       0.056700
     43 HAHA         2.1660    -4.6560     0.6300 hc         1 BA4       0.056700
     44 H1          -0.2420    -3.9920     0.8370 hc         1 BA4       0.057700
     45 H1A         -0.5570    -4.6100    -0.7830 hc         1 BA4       0.057700
     46 H2           0.0820    -6.9290    -0.0320 hc         1 BA4       0.032033
     47 H2A          0.3970    -6.3060     1.6040 hc         1 BA4       0.032033
     48 H2B         -1.2510    -6.2690     0.9400 hc         1 BA4       0.032033
     49 H22          3.1810     3.6080    -0.9840 h1         1 BA4       0.029700
     50 H23          1.6950     5.1850    -0.2310 ho         1 BA4       0.448000
@<TRIPOS>BOND
     1     1     2 2   
     2     2     3 1   
     3     2    10 1   
     4     3     4 1   
     5     3    28 1   
     6     4     5 ar  
     7     4     9 ar  
     8     5     6 ar  
     9     5    29 1   
    10     6     7 ar  
    11     6    30 1   
    12     7     8 ar  
    13     7    31 1   
    14     8     9 ar  
    15     8    32 1   
    16     9    33 1   
    17    10    11 1   
    18    11    12 2   
    19    12    13 1   
    20    12    21 1   
    21    13    14 1   
    22    14    15 1   
    23    14    17 1   
    24    14    34 1   
    25    15    16 1   
    26    15    35 1   
    27    15    49 1   
    28    16    50 1   
    29    17    18 1   
    30    17    19 1   
    31    17    36 1   
    32    18    37 1   
    33    19    20 1   
    34    19    21 1   
    35    19    38 1   
    36    20    39 1   
    37    21    22 1   
    38    21    40 1   
    39    22    23 1   
    40    22    41 1   
    41    23    24 2   
    42    23    25 1   
    43    25    26 1   
    44    25    42 1   
    45    25    43 1   
    46    26    27 1   
    47    26    44 1   
    48    26    45 1   
    49    27    46 1   
    50    27    47 1   
    51    27    48 1   
@<TRIPOS>SUBSTRUCTURE
     1 BA4         1 TEMP              0 ****  ****    0 ROOT
