@<TRIPOS>MOLECULE
BA6
   26    25     1     0     0
SMALL
No Charge or Current Charge


@<TRIPOS>ATOM
      1 O2           5.3180    -0.2830     0.2710 oh         1 BA6      -0.661000
      2 C6           4.1890     0.4630    -0.1940 c3         1 BA6       0.164600
      3 C4           2.8870    -0.2450     0.2280 c3         1 BA6      -0.081400
      4 C2           1.6170     0.5020    -0.2380 c3         1 BA6      -0.075400
      5 C            0.3090    -0.2040     0.1840 c3         1 BA6      -0.070400
      6 C1          -0.9610     0.5470    -0.2840 c3         1 BA6      -0.110400
      7 C3          -2.2880    -0.1150     0.1620 c3         1 BA6       0.165300
      8 O           -2.4180    -1.4070    -0.4480 oh         1 BA6      -0.638000
      9 C5          -3.5320     0.7360    -0.2150 c3         1 BA6       0.130600
     10 O1          -4.7380     0.0420     0.1460 oh         1 BA6      -0.644000
     11 H1           6.1210     0.2030    -0.0210 ho         1 BA6       0.442000
     12 H2           4.2050     1.4770     0.2270 h1         1 BA6       0.014200
     13 H3           4.2170     0.5500    -1.2880 h1         1 BA6       0.014200
     14 H4           2.8800    -1.2610    -0.1850 hc         1 BA6       0.054200
     15 H5           2.8690    -0.3410     1.3210 hc         1 BA6       0.054200
     16 H6           1.6260     1.5190     0.1750 hc         1 BA6       0.035200
     17 H7           1.6370     0.5990    -1.3300 hc         1 BA6       0.035200
     18 H8           0.3050    -1.2220    -0.2270 hc         1 BA6       0.049200
     19 H9           0.2880    -0.3010     1.2770 hc         1 BA6       0.049200
     20 H10         -0.9290     1.5690     0.1130 hc         1 BA6       0.040200
     21 H11         -0.9490     0.6340    -1.3780 hc         1 BA6       0.040200
     22 H12         -2.2740    -0.2130     1.2580 h1         1 BA6       0.084700
     23 H13         -3.3830    -1.5940    -0.4230 ho         1 BA6       0.434000
     24 H14         -3.4780     1.7000     0.3090 h1         1 BA6       0.017200
     25 H15         -3.5200     0.9420    -1.2940 h1         1 BA6       0.017200
     26 H16         -5.4890     0.6420    -0.0640 ho         1 BA6       0.441000
@<TRIPOS>BOND
     1     1     2 1   
     2     1    11 1   
     3     2     3 1   
     4     2    12 1   
     5     2    13 1   
     6     3     4 1   
     7     3    14 1   
     8     3    15 1   
     9     4     5 1   
    10     4    16 1   
    11     4    17 1   
    12     5     6 1   
    13     5    18 1   
    14     5    19 1   
    15     6     7 1   
    16     6    20 1   
    17     6    21 1   
    18     7     8 1   
    19     7     9 1   
    20     7    22 1   
    21     8    23 1   
    22     9    10 1   
    23     9    24 1   
    24     9    25 1   
    25    10    26 1   
@<TRIPOS>SUBSTRUCTURE
     1 BA6         1 TEMP              0 ****  ****    0 ROOT
