@<TRIPOS>MOLECULE
BA6
   26    25     1     0     0
SMALL
bcc


@<TRIPOS>ATOM
      1 O2           5.1920    -0.2240     0.2810 oh         1 BA6      -0.598800
      2 C6           4.0670     0.4430    -0.2510 c3         1 BA6       0.141400
      3 C4           2.8050    -0.2310     0.2490 c3         1 BA6      -0.081400
      4 C2           1.5460     0.4550    -0.2660 c3         1 BA6      -0.075400
      5 C            0.2650    -0.2090     0.2220 c3         1 BA6      -0.070400
      6 C1          -0.9890     0.5230    -0.2360 c3         1 BA6      -0.110400
      7 C3          -2.2860    -0.1420     0.2160 c3         1 BA6       0.142100
      8 O           -2.4210    -1.4510    -0.2990 oh         1 BA6      -0.575800
      9 C5          -3.4830     0.7280    -0.1300 c3         1 BA6       0.107400
     10 O1          -4.6550     0.1370     0.3800 oh         1 BA6      -0.581800
     11 H1           5.9830     0.2170    -0.0420 ho         1 BA6       0.403000
     12 H2           4.0520     1.5010     0.0460 h1         1 BA6       0.014200
     13 H3           4.0760     0.4270    -1.3500 h1         1 BA6       0.014200
     14 H4           2.8040    -1.2810    -0.0610 hc         1 BA6       0.054200
     15 H5           2.8010    -0.2250     1.3430 hc         1 BA6       0.054200
     16 H6           1.5520     1.5060     0.0450 hc         1 BA6       0.035200
     17 H7           1.5540     0.4650    -1.3610 hc         1 BA6       0.035200
     18 H8           0.2390    -1.2460    -0.1260 hc         1 BA6       0.049200
     19 H9           0.2750    -0.2540     1.3160 hc         1 BA6       0.049200
     20 H10         -0.9660     1.5480     0.1480 hc         1 BA6       0.040200
     21 H11         -0.9900     0.6120    -1.3300 hc         1 BA6       0.040200
     22 H12         -2.2550    -0.2610     1.3050 h1         1 BA6       0.084700
     23 H13         -2.4100    -1.3950    -1.2610 ho         1 BA6       0.395000
     24 H14         -3.3180     1.7280     0.2930 h1         1 BA6       0.017200
     25 H15         -3.5340     0.8530    -1.2230 h1         1 BA6       0.017200
     26 H16         -5.3940     0.7160     0.1740 ho         1 BA6       0.402000
@<TRIPOS>BOND
     1     1     2 1   
     2     1    11 1   
     3     2     3 1   
     4     2    12 1   
     5     2    13 1   
     6     3     4 1   
     7     3    14 1   
     8     3    15 1   
     9     4     5 1   
    10     4    16 1   
    11     4    17 1   
    12     5     6 1   
    13     5    18 1   
    14     5    19 1   
    15     6     7 1   
    16     6    20 1   
    17     6    21 1   
    18     7     8 1   
    19     7     9 1   
    20     7    22 1   
    21     8    23 1   
    22     9    10 1   
    23     9    24 1   
    24     9    25 1   
    25    10    26 1   
@<TRIPOS>SUBSTRUCTURE
     1 BA6         1 TEMP              0 ****  ****    0 ROOT
