@<TRIPOS>MOLECULE
BA7
   69    73     1     0     0
SMALL
No Charge or Current Charge


@<TRIPOS>ATOM
      1 C1           0.1160     6.7990     3.1270 ca         1 BA7      -0.117600
      2 C12         -1.6750     5.1690    13.6980 c5         1 BA7       0.271300
      3 C10          1.3220     6.2040     1.0800 ca         1 BA7      -0.137500
      4 C11          0.9330     5.9050     2.3980 ca         1 BA7      -0.055500
      5 C1D         -2.0720     8.4350     7.1440 c5         1 BA7       0.381300
      6 C2          -2.3950     3.8650    17.9120 ca         1 BA7       0.157900
      7 C13         -0.7360     5.2440    12.4360 c5         1 BA7       0.085300
      8 C2D         -1.6130     7.0960     6.4510 c5         1 BA7       0.139300
      9 C3          -0.3030     7.9990     2.5050 ca         1 BA7      -0.055500
     10 C14         -1.3540     6.4640    11.6930 c5         1 BA7       0.153300
     11 C3D         -3.0060     6.4010     6.3050 c5         1 BA7       0.150300
     12 C4          -2.1020     3.6320    15.6540 ca         1 BA7       0.121500
     13 C15         -2.8750     6.1720    11.9150 c5         1 BA7       0.136300
     14 C4D         -3.8370     7.6220     5.8190 c5         1 BA7       0.110300
     15 C5          -2.2270     2.2710    15.7790 ca         1 BA7      -0.093600
     16 C16         -3.4480     5.0470    10.9900 c3         1 BA7       0.225600
     17 C5D         -5.3970     7.5140     5.7270 c3         1 BA7       0.244600
     18 C6          -2.4460     1.7390    17.0670 ca         1 BA7       0.440900
     19 C6D         -0.2930     6.4600     4.5440 c          1 BA7       0.620700
     20 C7           0.0890     8.2930     1.1870 ca         1 BA7      -0.137500
     21 C8          -1.9170     2.6200    13.6770 cc         1 BA7       0.441700
     22 C9           0.9010     7.3970     0.4740 ca         1 BA7      -0.103000
     23 N1          -2.5340     2.5360    18.1430 nb         1 BA7      -0.323000
     24 N3          -2.1800     4.4610    16.7150 nb         1 BA7      -0.205000
     25 N6          -2.5880     0.4070    17.3000 nv         1 BA7      -1.077900
     26 N7          -2.1160     1.6130    14.5500 nd         1 BA7      -0.575100
     27 N9          -1.9010     3.8630    14.3220 na         1 BA7      -0.281300
     28 O1A         -6.7530     6.6580     9.8810 o          1 BA7      -0.840000
     29 O1B         -5.4550     4.6350     6.0360 o          1 BA7      -0.852500
     30 O1D         -2.1080     8.3150     8.5530 oh         1 BA7      -0.631000
     31 O2           0.6540     5.4810    12.7540 oh         1 BA7      -0.714000
     32 O2A         -4.4000     7.3610     9.4230 o          1 BA7      -0.840000
     33 O2B         -7.5140     4.8930     7.3600 o          1 BA7      -0.852500
     34 O2D         -1.0560     7.4400     5.1400 os         1 BA7      -0.446100
     35 O3A         -5.2130     5.1670     8.4390 os         1 BA7      -0.721800
     36 O3D         -3.0770     5.2550     5.4340 oh         1 BA7      -0.773000
     37 O4          -2.9460     5.7440    13.3050 os         1 BA7      -0.466000
     38 O4D         -3.4210     8.6960     6.6980 os         1 BA7      -0.483000
     39 O5          -4.8520     5.2530    10.7730 os         1 BA7      -0.586400
     40 O5D         -6.0180     6.9520     6.9000 os         1 BA7      -0.595400
     41 O6D          0.0610     5.4270     5.1010 o          1 BA7      -0.481000
     42 PA          -5.3550     6.2280     9.5930 p5         1 BA7       1.464800
     43 PB          -6.1120     5.3650     7.1640 p5         1 BA7       1.491800
     44 H1          -1.2470     5.8010    14.4870 h2         1 BA7       0.095700
     45 H2           1.9510     5.5080     0.5300 ha         1 BA7       0.104000
     46 H3           1.2690     4.9740     2.8510 ha         1 BA7       0.137000
     47 H4          -1.4100     9.2640     6.8630 h2         1 BA7       0.021700
     48 H6          -0.8370     4.3450    11.8120 h1         1 BA7       0.091700
     49 H7          -0.8930     6.5460     7.0700 h1         1 BA7       0.097700
     50 H8          -0.9340     8.7110     3.0340 ha         1 BA7       0.137000
     51 H9          -1.0970     6.4520    10.6220 h1         1 BA7       0.123700
     52 H10         -3.3200     6.1130     7.3140 h1         1 BA7       0.108700
     53 H11         -3.4680     7.0870    11.7880 h1         1 BA7       0.090700
     54 H12         -3.5070     7.8990     4.8090 h1         1 BA7       0.024700
     55 H13         -3.2740     4.0640    11.4460 h1         1 BA7       0.032200
     56 H14         -2.9110     5.0620    10.0320 h1         1 BA7       0.032200
     57 H15         -5.7970     8.5200     5.5460 h1         1 BA7       0.021200
     58 H16         -5.6490     6.9170     4.8410 h1         1 BA7       0.021200
     59 H17         -0.2390     9.2180     0.7180 ha         1 BA7       0.104000
     60 H18         -1.7860     2.5110    12.6060 h5         1 BA7       0.098800
     61 H19          1.2020     7.6270    -0.5460 ha         1 BA7       0.097000
     62 H20         -3.0290     0.1210    18.1700 hn         1 BA7       0.499500
     63 H21         -2.7460    -0.1880    16.4900 hn         1 BA7       0.499500
     64 H22         -3.0420     8.0300     8.7770 ho         1 BA7       0.450000
     65 H23          1.0300     4.6440    13.1200 ho         1 BA7       0.508000
     66 H27         -4.0190     4.8870     5.5830 ho         1 BA7       0.602000
     67 O3          -0.9070     7.6850    12.3070 oh         1 BA7      -0.731000
     68 H5          -2.4630     4.5210    18.7780 h5         1 BA7       0.030100
     69 H26         -0.0160     7.4430    12.6630 ho         1 BA7       0.508000
@<TRIPOS>BOND
     1     1     4 ar  
     2     1     9 ar  
     3     1    19 1   
     4     2     7 1   
     5     2    27 1   
     6     2    37 1   
     7     2    44 1   
     8     3     4 ar  
     9     3    22 ar  
    10     3    45 1   
    11     4    46 1   
    12     5     8 1   
    13     5    30 1   
    14     5    38 1   
    15     5    47 1   
    16     6    23 ar  
    17     6    24 ar  
    18     6    68 1   
    19     7    10 1   
    20     7    31 1   
    21     7    48 1   
    22     8    11 1   
    23     8    34 1   
    24     8    49 1   
    25     9    20 ar  
    26     9    50 1   
    27    10    13 1   
    28    10    51 1   
    29    10    67 1   
    30    11    14 1   
    31    11    36 1   
    32    11    52 1   
    33    12    15 ar  
    34    12    24 ar  
    35    12    27 1   
    36    13    16 1   
    37    13    37 1   
    38    13    53 1   
    39    14    17 1   
    40    14    38 1   
    41    14    54 1   
    42    15    18 ar  
    43    15    26 1   
    44    16    39 1   
    45    16    55 1   
    46    16    56 1   
    47    17    40 1   
    48    17    57 1   
    49    17    58 1   
    50    18    23 ar  
    51    18    25 1   
    52    19    34 1   
    53    19    41 2   
    54    20    22 ar  
    55    20    59 1   
    56    21    26 2   
    57    21    27 1   
    58    21    60 1   
    59    22    61 1   
    60    25    62 1   
    61    25    63 1   
    62    28    42 1   
    63    29    43 1   
    64    30    64 1   
    65    31    65 1   
    66    32    42 1   
    67    33    43 1   
    68    35    42 1   
    69    35    43 1   
    70    36    66 1   
    71    39    42 1   
    72    40    43 1   
    73    67    69 1   
@<TRIPOS>SUBSTRUCTURE
     1 BA7         1 TEMP              0 ****  ****    0 ROOT
