@<TRIPOS>MOLECULE
BA7
   69    73     1     0     0
SMALL
abcg2


@<TRIPOS>ATOM
      1 C1           0.3910     5.4270     3.2970 ca         1 BA7      -0.117600
      2 C12         -2.9550     5.3080    14.3680 c5         1 BA7       0.271300
      3 C10          1.5040     4.0800     1.6370 ca         1 BA7      -0.137500
      4 C11          1.1320     4.2970     2.9540 ca         1 BA7      -0.055500
      5 C1D         -1.4140     8.5080     6.2770 c5         1 BA7       0.381300
      6 C2          -0.8230     2.4600    16.8530 ca         1 BA7       0.157900
      7 C13         -2.5310     6.5640    13.5950 c5         1 BA7       0.085300
      8 C2D         -1.2700     6.9870     6.1850 c5         1 BA7       0.139300
      9 C3           0.0270     6.3380     2.3060 ca         1 BA7      -0.055500
     10 C14         -3.8330     7.3580    13.5960 c5         1 BA7       0.153300
     11 C3D         -2.7260     6.5570     6.2510 c5         1 BA7       0.150300
     12 C4          -1.5610     3.3150    14.9710 ca         1 BA7       0.121500
     13 C15         -4.8600     6.2470    13.4080 c5         1 BA7       0.136300
     14 C4D         -3.3630     7.6220     5.3550 c5         1 BA7       0.110300
     15 C5          -0.9900     2.3010    14.2190 ca         1 BA7      -0.093600
     16 C16         -5.1710     5.8940    11.9560 c3         1 BA7       0.225600
     17 C5D         -4.8630     7.8000     5.4850 c3         1 BA7       0.244600
     18 C6          -0.2840     1.3150    14.9320 ca         1 BA7       0.440900
     19 C6D         -0.0010     5.6050     4.7190 c          1 BA7       0.620700
     20 C7           0.4020     6.1170     0.9890 ca         1 BA7      -0.137500
     21 C8          -1.9560     3.5680    12.8340 cc         1 BA7       0.441700
     22 C9           1.1390     4.9900     0.6530 ca         1 BA7      -0.103000
     23 N1          -0.2220     1.4300    16.2630 nb         1 BA7      -0.323000
     24 N3          -1.5080     3.4430    16.2940 nb         1 BA7      -0.205000
     25 N6           0.3180     0.2850    14.3360 nv         1 BA7      -1.077900
     26 N7          -1.2510     2.4790    12.8840 nd         1 BA7      -0.575100
     27 N9          -2.1790     4.1320    14.0650 na         1 BA7      -0.281300
     28 O1A         -6.0440     8.8500     9.6860 o          1 BA7      -0.840000
     29 O1B         -5.5210     5.2310     6.7500 o          1 BA7      -0.852500
     30 O1D         -1.3970     8.8550     7.6210 oh         1 BA7      -0.631000
     31 O2          -1.4940     7.2750    14.1970 oh         1 BA7      -0.714000
     32 O2A         -3.6920     7.8400    10.2140 o          1 BA7      -0.840000
     33 O2B         -7.5210     6.6830     7.5380 o          1 BA7      -0.852500
     34 O2D         -0.7370     6.6950     4.8950 os         1 BA7      -0.446100
     35 O3A         -5.3670     6.4590     8.9300 os         1 BA7      -0.721800
     36 O3D         -2.9700     5.2520     5.8550 oh         1 BA7      -0.773000
     37 O4          -4.3010     5.0880    14.0390 os         1 BA7      -0.466000
     38 O4D         -2.6520     8.8130     5.6710 os         1 BA7      -0.483000
     39 O5          -5.8380     6.9680    11.3290 os         1 BA7      -0.586400
     40 O5D         -5.3200     7.7940     6.8210 os         1 BA7      -0.595400
     41 O6D          0.3040     4.8420     5.6010 o          1 BA7      -0.481000
     42 PA          -5.1680     7.6900    10.0150 p5         1 BA7       1.464800
     43 PB          -6.0490     6.4610     7.4510 p5         1 BA7       1.491800
     44 H1          -2.8340     5.4780    15.4430 h2         1 BA7       0.095700
     45 H2           2.0750     3.1990     1.3780 ha         1 BA7       0.104000
     46 H3           1.4130     3.5820     3.7160 ha         1 BA7       0.137000
     47 H4          -0.6230     9.0290     5.7240 h2         1 BA7       0.021700
     48 H6          -2.2910     6.3050    12.5560 h1         1 BA7       0.091700
     49 H7          -0.6360     6.5790     6.9730 h1         1 BA7       0.097700
     50 H8          -0.5520     7.2170     2.5500 ha         1 BA7       0.137000
     51 H9          -3.8560     8.0870    12.7810 h1         1 BA7       0.123700
     52 H10         -3.0370     6.7340     7.2900 h1         1 BA7       0.108700
     53 H11         -5.7910     6.5070    13.9210 h1         1 BA7       0.090700
     54 H12         -3.1820     7.3600     4.3030 h1         1 BA7       0.024700
     55 H13         -5.8200     5.0130    11.9440 h1         1 BA7       0.032200
     56 H14         -4.2500     5.6170    11.4350 h1         1 BA7       0.032200
     57 H15         -5.1490     8.7550     5.0350 h1         1 BA7       0.021200
     58 H16         -5.3420     7.0210     4.8850 h1         1 BA7       0.021200
     59 H17          0.1140     6.8270     0.2250 ha         1 BA7       0.104000
     60 H18         -2.3480     4.0070    11.9290 h5         1 BA7       0.098800
     61 H19          1.4270     4.8190    -0.3760 ha         1 BA7       0.097000
     62 H20          0.7830    -0.4170    14.8850 hn         1 BA7       0.499500
     63 H21          0.2620     0.1530    13.3410 hn         1 BA7       0.499500
     64 H22         -1.3970     9.8150     7.7000 ho         1 BA7       0.450000
     65 H23         -0.6560     6.8490    13.9890 ho         1 BA7       0.508000
     66 H27         -3.8970     5.0740     6.1460 ho         1 BA7       0.602000
     67 O3          -4.0680     7.9580    14.8470 oh         1 BA7      -0.731000
     68 H5          -0.7340     2.4930    17.9340 h5         1 BA7       0.030100
     69 H26         -3.3520     8.5760    15.0280 ho         1 BA7       0.508000
@<TRIPOS>BOND
     1     1     4 ar  
     2     1     9 ar  
     3     1    19 1   
     4     2     7 1   
     5     2    27 1   
     6     2    37 1   
     7     2    44 1   
     8     3     4 ar  
     9     3    22 ar  
    10     3    45 1   
    11     4    46 1   
    12     5     8 1   
    13     5    30 1   
    14     5    38 1   
    15     5    47 1   
    16     6    23 ar  
    17     6    24 ar  
    18     6    68 1   
    19     7    10 1   
    20     7    31 1   
    21     7    48 1   
    22     8    11 1   
    23     8    34 1   
    24     8    49 1   
    25     9    20 ar  
    26     9    50 1   
    27    10    13 1   
    28    10    51 1   
    29    10    67 1   
    30    11    14 1   
    31    11    36 1   
    32    11    52 1   
    33    12    15 ar  
    34    12    24 ar  
    35    12    27 1   
    36    13    16 1   
    37    13    37 1   
    38    13    53 1   
    39    14    17 1   
    40    14    38 1   
    41    14    54 1   
    42    15    18 ar  
    43    15    26 1   
    44    16    39 1   
    45    16    55 1   
    46    16    56 1   
    47    17    40 1   
    48    17    57 1   
    49    17    58 1   
    50    18    23 ar  
    51    18    25 1   
    52    19    34 1   
    53    19    41 2   
    54    20    22 ar  
    55    20    59 1   
    56    21    26 2   
    57    21    27 1   
    58    21    60 1   
    59    22    61 1   
    60    25    62 1   
    61    25    63 1   
    62    28    42 1   
    63    29    43 1   
    64    30    64 1   
    65    31    65 1   
    66    32    42 1   
    67    33    43 1   
    68    35    42 1   
    69    35    43 1   
    70    36    66 1   
    71    39    42 1   
    72    40    43 1   
    73    67    69 1   
@<TRIPOS>SUBSTRUCTURE
     1 BA7         1 TEMP              0 ****  ****    0 ROOT
