@<TRIPOS>MOLECULE
BA8
   46    49     1     0     0
SMALL
bcc


@<TRIPOS>ATOM
      1 C1          -1.1740     1.2360    -0.3140 ca         1 BA8      -0.151300
      2 C2          -1.2180     2.5390    -0.8310 ca         1 BA8       0.194100
      3 C3          -0.1040     3.3670    -0.7780 ca         1 BA8      -0.277000
      4 C8           2.3950     1.1300     0.9170 cc         1 BA8      -0.026300
      5 C9           3.1660     1.6060     1.9560 cd         1 BA8      -0.319300
      6 C10          4.2290     0.6930     2.0630 cd         1 BA8       0.306200
      7 C13          2.6520    -0.8010    -0.6180 ca         1 BA8       0.012800
      8 C14          2.0930    -2.0570    -0.4100 ca         1 BA8       0.038400
      9 C15          1.7260    -2.8510    -1.4850 ca         1 BA8      -0.120000
     10 C16          1.9100    -2.3770    -2.7760 ca         1 BA8      -0.109000
     11 C21         -2.3760     0.3350    -0.3280 c3         1 BA8      -0.008100
     12 C22         -5.5890    -2.3000     1.5980 ca         1 BA8      -0.090000
     13 C24         -6.5220    -0.9270    -0.1020 ca         1 BA8       0.404200
     14 N25         -5.5050    -0.0750    -0.0550 nb         1 BA8      -0.670000
     15 C27         -4.5250    -1.4150     1.6520 ca         1 BA8      -0.244300
     16 C4           1.0810     2.9170    -0.2040 ca         1 BA8       0.210100
     17 C5           1.1520     1.6260     0.3250 ca         1 BA8      -0.170000
     18 C6           0.0150     0.8210     0.2540 ca         1 BA8      -0.031000
     19 O7          -2.3760     2.9500    -1.3760 oh         1 BA8      -0.481100
     20 N11          4.1320    -0.2680     1.1690 nc         1 BA8      -0.492800
     21 N12          3.0250     0.0090     0.4770 na         1 BA8       0.169300
     22 C17          2.4550    -1.1190    -2.9920 ca         1 BA8      -0.121000
     23 C18          2.8290    -0.3340    -1.9120 ca         1 BA8      -0.101000
     24 CL           1.8140    -2.6130     1.1990 cl         1 BA8      -0.081400
     25 O20          2.1210     3.7700    -0.2030 oh         1 BA8      -0.495100
     26 C23         -6.6170    -2.0540     0.7000 ca         1 BA8      -0.252300
     27 C26         -4.5180    -0.3070     0.8080 ca         1 BA8       0.417600
     28 C28         -3.3660     0.6540     0.8040 c3         1 BA8      -0.125700
     29 H1          -0.1460     4.3700    -1.1880 ha         1 BA8       0.150000
     30 H2           2.9660     2.4640     2.5780 ha         1 BA8       0.168000
     31 H3           5.0510     0.7050     2.7620 h4         1 BA8       0.041100
     32 H4           1.2920    -3.8260    -1.3140 ha         1 BA8       0.152000
     33 H5           1.6210    -2.9960    -3.6140 ha         1 BA8       0.141000
     34 H6          -2.8980     0.3890    -1.2850 hc         1 BA8       0.054700
     35 H7          -2.0370    -0.6980    -0.2200 hc         1 BA8       0.054700
     36 H9          -7.3080    -0.6990    -0.8140 h4         1 BA8       0.017100
     37 H10         -3.7070    -1.5760     2.3430 ha         1 BA8       0.140000
     38 H11          0.0600    -0.1770     0.6760 ha         1 BA8       0.141000
     39 H12         -2.2930     3.8510    -1.7100 ho         1 BA8       0.429000
     40 H13          2.5950    -0.7500    -3.9980 ha         1 BA8       0.143000
     41 H14          3.2610     0.6450    -2.0680 ha         1 BA8       0.149000
     42 H15          2.9020     3.3600     0.1920 ho         1 BA8       0.442000
     43 H16         -7.4710    -2.7120     0.6220 ha         1 BA8       0.140000
     44 H17         -2.8400     0.6120     1.7600 hc         1 BA8       0.059700
     45 H18         -3.7450     1.6700     0.6840 hc         1 BA8       0.059700
     46 H8          -5.6170    -3.1660     2.2470 ha         1 BA8       0.135000
@<TRIPOS>BOND
     1     1     2 ar  
     2     1    11 1   
     3     1    18 ar  
     4     2     3 ar  
     5     2    19 1   
     6     3    16 ar  
     7     3    29 1   
     8     4     5 2   
     9     4    17 1   
    10     4    21 1   
    11     5     6 1   
    12     5    30 1   
    13     6    20 2   
    14     6    31 1   
    15     7     8 ar  
    16     7    21 1   
    17     7    23 ar  
    18     8     9 ar  
    19     8    24 1   
    20     9    10 ar  
    21     9    32 1   
    22    10    22 ar  
    23    10    33 1   
    24    11    28 1   
    25    11    34 1   
    26    11    35 1   
    27    12    15 ar  
    28    12    26 ar  
    29    12    46 1   
    30    13    14 ar  
    31    13    26 ar  
    32    13    36 1   
    33    14    27 ar  
    34    15    27 ar  
    35    15    37 1   
    36    16    17 ar  
    37    16    25 1   
    38    17    18 ar  
    39    18    38 1   
    40    19    39 1   
    41    20    21 1   
    42    22    23 ar  
    43    22    40 1   
    44    23    41 1   
    45    25    42 1   
    46    26    43 1   
    47    27    28 1   
    48    28    44 1   
    49    28    45 1   
@<TRIPOS>SUBSTRUCTURE
     1 BA8         1 TEMP              0 ****  ****    0 ROOT
