@<TRIPOS>MOLECULE
BA8
   46    49     1     0     0
SMALL
No Charge or Current Charge


@<TRIPOS>ATOM
      1 C1          -1.1990     1.4820    -0.4110 ca         1 BA8      -0.151300
      2 C2          -1.2600     2.8300    -0.8240 ca         1 BA8       0.194100
      3 C3          -0.1240     3.6450    -0.7310 ca         1 BA8      -0.259000
      4 C8           2.3940     1.2230     0.7460 cc         1 BA8      -0.077000
      5 C9           3.1590     1.7850     1.7270 cd         1 BA8      -0.236000
      6 C10          4.1960     0.8590     2.0120 cd         1 BA8       0.240900
      7 C13          2.5770    -0.9260    -0.4220 ca         1 BA8       0.012800
      8 C14          1.9540    -2.1490    -0.0840 ca         1 BA8       0.130000
      9 C15          1.5430    -3.0330    -1.0960 ca         1 BA8      -0.102000
     10 C16          1.7480    -2.7070    -2.4480 ca         1 BA8      -0.091000
     11 C21         -2.4100     0.5540    -0.4960 c3         1 BA8      -0.008100
     12 C22         -5.2820    -2.6810     0.9140 ca         1 BA8      -0.072000
     13 C24         -6.6720    -0.7500     0.4540 ca         1 BA8       0.338900
     14 N25         -5.6180     0.0970     0.5080 nb         1 BA8      -0.670000
     15 C27         -4.1870    -1.8040     0.9710 ca         1 BA8      -0.161000
     16 C4           1.0740     3.1310    -0.2230 ca         1 BA8       0.210100
     17 C5           1.1540     1.7920     0.2090 ca         1 BA8      -0.170000
     18 C6           0.0090     0.9770     0.1070 ca         1 BA8      -0.013000
     19 O7          -2.4140     3.3590    -1.3200 oh         1 BA8      -0.520100
     20 N11          4.1220    -0.2490     1.2900 nc         1 BA8      -0.492800
     21 N12          2.9750    -0.0240     0.5630 na         1 BA8       0.220000
     22 C17          2.3610    -1.4910    -2.7890 ca         1 BA8      -0.103000
     23 C18          2.7730    -0.6020    -1.7800 ca         1 BA8      -0.083000
     24 Cl           1.6390    -2.5850     1.5980 cl         1 BA8      -0.173000
     25 O20          2.1690     3.9360    -0.1880 oh         1 BA8      -0.534100
     26 C23         -6.5490    -2.1370     0.6500 ca         1 BA8      -0.169000
     27 C26         -4.3950    -0.4260     0.7630 ca         1 BA8       0.352300
     28 C28         -3.2310     0.5510     0.8110 c3         1 BA8      -0.125700
     29 H1          -0.1610     4.6800    -1.0590 ha         1 BA8       0.132000
     30 H2           3.0020     2.7380     2.2210 ha         1 BA8       0.150000
     31 H3           4.9990     0.9670     2.7320 h4         1 BA8       0.041100
     32 H4           1.0600    -3.9710    -0.8310 ha         1 BA8       0.134000
     33 H5           1.4270    -3.3940    -3.2290 ha         1 BA8       0.123000
     34 H6          -3.0630     0.8320    -1.3320 hc         1 BA8       0.054700
     35 H7          -2.0780    -0.4700    -0.7110 hc         1 BA8       0.054700
     36 H9          -7.6440    -0.3040     0.2470 h4         1 BA8       0.017100
     37 H10         -3.1890    -2.1820     1.1720 ha         1 BA8       0.122000
     38 H11          0.0500    -0.0560     0.4450 ha         1 BA8       0.123000
     39 H12         -2.2490     4.2980    -1.5440 ho         1 BA8       0.468000
     40 H13          2.5170    -1.2350    -3.8350 ha         1 BA8       0.125000
     41 H14          3.2440     0.3400    -2.0520 ha         1 BA8       0.131000
     42 H15          2.9130     3.3860     0.1340 ho         1 BA8       0.481000
     43 H16         -7.4270    -2.7740     0.5960 ha         1 BA8       0.122000
     44 H17         -2.5720     0.2910     1.6480 hc         1 BA8       0.059700
     45 H18         -3.5900     1.5680     1.0100 hc         1 BA8       0.059700
     46 H8          -5.1520    -3.7500     1.0700 ha         1 BA8       0.117000
@<TRIPOS>BOND
     1     1     2 ar  
     2     1    11 1   
     3     1    18 ar  
     4     2     3 ar  
     5     2    19 1   
     6     3    16 ar  
     7     3    29 1   
     8     4     5 2   
     9     4    17 1   
    10     4    21 1   
    11     5     6 1   
    12     5    30 1   
    13     6    20 2   
    14     6    31 1   
    15     7     8 ar  
    16     7    21 1   
    17     7    23 ar  
    18     8     9 ar  
    19     8    24 1   
    20     9    10 ar  
    21     9    32 1   
    22    10    22 ar  
    23    10    33 1   
    24    11    28 1   
    25    11    34 1   
    26    11    35 1   
    27    12    15 ar  
    28    12    26 ar  
    29    12    46 1   
    30    13    14 ar  
    31    13    26 ar  
    32    13    36 1   
    33    14    27 ar  
    34    15    27 ar  
    35    15    37 1   
    36    16    17 ar  
    37    16    25 1   
    38    17    18 ar  
    39    18    38 1   
    40    19    39 1   
    41    20    21 1   
    42    22    23 ar  
    43    22    40 1   
    44    23    41 1   
    45    25    42 1   
    46    26    43 1   
    47    27    28 1   
    48    28    44 1   
    49    28    45 1   
@<TRIPOS>SUBSTRUCTURE
     1 BA8         1 TEMP              0 ****  ****    0 ROOT
