@<TRIPOS>MOLECULE
BA9
   13    12     1     0     0
SMALL
bcc


@<TRIPOS>ATOM
      1 O1           1.1000    -0.0530    -0.8580 oh         1 BA9      -0.579800
      2 C            0.0140    -0.0200     0.0330 c3         1 BA9       0.364600
      3 O           -1.0820    -0.0080    -0.8460 oh         1 BA9      -0.579800
      4 C2          -0.0070    -1.2680     0.9140 c3         1 BA9      -0.157100
      5 C1           0.0460     1.2480     0.8840 c3         1 BA9      -0.157100
      6 H1           1.9150    -0.0650    -0.3470 ho         1 BA9       0.413000
      7 H2          -1.8930     0.0150    -0.3280 ho         1 BA9       0.413000
      8 H3           0.8750    -1.3070     1.5570 hc         1 BA9       0.047367
      9 H4          -0.8830    -1.2720     1.5650 hc         1 BA9       0.047367
     10 H5          -0.0280    -2.1730     0.3050 hc         1 BA9       0.047367
     11 H6           0.0560     2.1390     0.2530 hc         1 BA9       0.047367
     12 H7          -0.8250     1.3020     1.5400 hc         1 BA9       0.047367
     13 H8           0.9330     1.2690     1.5200 hc         1 BA9       0.047367
@<TRIPOS>BOND
     1     1     2 1   
     2     1     6 1   
     3     2     3 1   
     4     2     4 1   
     5     2     5 1   
     6     3     7 1   
     7     4     8 1   
     8     4     9 1   
     9     4    10 1   
    10     5    11 1   
    11     5    12 1   
    12     5    13 1   
@<TRIPOS>SUBSTRUCTURE
     1 BA9         1 TEMP              0 ****  ****    0 ROOT
