@<TRIPOS>MOLECULE
BA9
   13    12     1     0     0
SMALL
No Charge or Current Charge


@<TRIPOS>ATOM
      1 O1           1.1110     0.1530    -0.7040 oh         1 BA9      -0.642000
      2 C            0.0160    -0.0290     0.1560 c3         1 BA9       0.411000
      3 O           -1.0860    -0.2830    -0.6760 oh         1 BA9      -0.642000
      4 C2           0.2670    -1.2490     1.0540 c3         1 BA9      -0.157100
      5 C1          -0.2290     1.2650     0.9490 c3         1 BA9      -0.157100
      6 H1           1.4150    -0.7500    -0.9280 ho         1 BA9       0.452000
      7 H2          -1.3920     0.5980    -0.9740 ho         1 BA9       0.452000
      8 H3           1.1570    -1.0960     1.6770 hc         1 BA9       0.047367
      9 H4          -0.5870    -1.4190     1.7210 hc         1 BA9       0.047367
     10 H5           0.4170    -2.1570     0.4580 hc         1 BA9       0.047367
     11 H6          -0.3840     2.1190     0.2780 hc         1 BA9       0.047367
     12 H7          -1.1140     1.1650     1.5900 hc         1 BA9       0.047367
     13 H8           0.6300     1.4900     1.5910 hc         1 BA9       0.047367
@<TRIPOS>BOND
     1     1     2 1   
     2     1     6 1   
     3     2     3 1   
     4     2     4 1   
     5     2     5 1   
     6     3     7 1   
     7     4     8 1   
     8     4     9 1   
     9     4    10 1   
    10     5    11 1   
    11     5    12 1   
    12     5    13 1   
@<TRIPOS>SUBSTRUCTURE
     1 BA9         1 TEMP              0 ****  ****    0 ROOT
