@<TRIPOS>MOLECULE
BAA
   39    38     1     0     0
SMALL
No Charge or Current Charge


@<TRIPOS>ATOM
      1 N3           0.2540     0.1910    -6.2800 nt         1 BAA      -0.600000
      2 C1          -0.2600    -0.1140    -5.0670 c          1 BAA       0.594100
      3 O1          -1.3870    -0.5790    -4.9880 o          1 BAA      -0.610100
      4 CA1          0.6540     0.1500    -3.8310 c3         1 BAA       0.031700
      5 CB1          1.9980    -0.6150    -3.9120 c3         1 BAA      -0.107100
      6 N1          -0.0670    -0.1690    -2.5780 ns         1 BAA      -0.494900
      7 C2           0.2570     0.3130    -1.3260 c          1 BAA       0.595100
      8 O2           1.2010     1.0760    -1.1540 o          1 BAA      -0.613100
      9 CA2         -0.6600    -0.1800    -0.1660 c3         1 BAA       0.055700
     10 CB2         -2.1110     0.3370    -0.3130 c3         1 BAA      -0.116100
     11 N2          -0.0950     0.2130     1.1420 ns         1 BAA      -0.500900
     12 C3          -0.4170    -0.3440     2.3440 c          1 BAA       0.653100
     13 O3          -1.2090    -1.2610     2.4920 o          1 BAA      -0.556000
     14 O4           0.3140     0.2870     3.3110 os         1 BAA      -0.474100
     15 C4           0.2200    -0.0640     4.7120 c3         1 BAA       0.224000
     16 C41          1.2020     0.9000     5.4130 c3         1 BAA      -0.108767
     17 C42         -1.2240     0.1930     5.2180 c3         1 BAA      -0.108767
     18 C43          0.6820    -1.5300     4.9160 c3         1 BAA      -0.108767
     19 HN31         1.1840     0.5770    -6.3570 hn         1 BAA       0.318500
     20 HN32        -0.3050     0.0320    -7.1050 hn         1 BAA       0.318500
     21 HA1          0.8720     1.2270    -3.8360 h1         1 BAA       0.079700
     22 HB11         1.8250    -1.6980    -3.9450 hc         1 BAA       0.051367
     23 HB12         2.5620    -0.3300    -4.8080 hc         1 BAA       0.051367
     24 HB13         2.6260    -0.3960    -3.0400 hc         1 BAA       0.051367
     25 HN1         -0.8790    -0.7740    -2.6400 hn         1 BAA       0.344500
     26 HA2         -0.6720    -1.2770    -0.2190 h1         1 BAA       0.082700
     27 HB21        -2.1360     1.4330    -0.2820 hc         1 BAA       0.052367
     28 HB22        -2.5510     0.0110    -1.2630 hc         1 BAA       0.052367
     29 HB23        -2.7460    -0.0430     0.4960 hc         1 BAA       0.052367
     30 HN2          0.6040     0.9470     1.1690 hn         1 BAA       0.347500
     31 H411         1.2150     0.7250     6.4960 hc         1 BAA       0.049144
     32 H412         2.2220     0.7610     5.0350 hc         1 BAA       0.049144
     33 H413         0.9130     1.9440     5.2420 hc         1 BAA       0.049144
     34 H421        -1.5740     1.1850     4.9090 hc         1 BAA       0.049144
     35 H422        -1.9290    -0.5550     4.8420 hc         1 BAA       0.049144
     36 H423        -1.2580     0.1490     6.3130 hc         1 BAA       0.049144
     37 H431         1.6320    -1.7130     4.3990 hc         1 BAA       0.049144
     38 H432         0.8320    -1.7370     5.9820 hc         1 BAA       0.049144
     39 H433        -0.0570    -2.2480     4.5480 hc         1 BAA       0.049144
@<TRIPOS>BOND
     1     1     2 1   
     2     1    19 1   
     3     1    20 1   
     4     2     3 2   
     5     2     4 1   
     6     4     5 1   
     7     4     6 1   
     8     4    21 1   
     9     5    22 1   
    10     5    23 1   
    11     5    24 1   
    12     6     7 1   
    13     6    25 1   
    14     7     8 2   
    15     7     9 1   
    16     9    10 1   
    17     9    11 1   
    18     9    26 1   
    19    10    27 1   
    20    10    28 1   
    21    10    29 1   
    22    11    12 1   
    23    11    30 1   
    24    12    13 2   
    25    12    14 1   
    26    14    15 1   
    27    15    16 1   
    28    15    17 1   
    29    15    18 1   
    30    16    31 1   
    31    16    32 1   
    32    16    33 1   
    33    17    34 1   
    34    17    35 1   
    35    17    36 1   
    36    18    37 1   
    37    18    38 1   
    38    18    39 1   
@<TRIPOS>SUBSTRUCTURE
     1 BAA         1 TEMP              0 ****  ****    0 ROOT
