@<TRIPOS>MOLECULE
BAA
   39    38     1     0     0
SMALL
abcg2


@<TRIPOS>ATOM
      1 N3          -0.0340     0.2760    -6.0320 nt         1 BAA      -0.600000
      2 C1          -0.2460    -0.3540    -4.8730 c          1 BAA       0.594100
      3 O1          -1.0760    -1.2390    -4.7220 o          1 BAA      -0.610100
      4 CA1          0.6750     0.0770    -3.7340 c3         1 BAA       0.031700
      5 CB1          2.0460    -0.5810    -3.8990 c3         1 BAA      -0.107100
      6 N1           0.0410    -0.2850    -2.4900 ns         1 BAA      -0.494900
      7 C2           0.2730     0.3430    -1.3330 c          1 BAA       0.595100
      8 O2           1.0730     1.2580    -1.2040 o          1 BAA      -0.613100
      9 CA2         -0.6030    -0.1310    -0.1760 c3         1 BAA       0.055700
     10 CB2         -1.9950     0.4940    -0.3060 c3         1 BAA      -0.116100
     11 N2           0.0530     0.2280     1.0550 ns         1 BAA      -0.500900
     12 C3          -0.2750    -0.3400     2.2330 c          1 BAA       0.653100
     13 O3          -1.0680    -1.2540     2.3490 o          1 BAA      -0.556000
     14 O4           0.4050     0.2340     3.2250 os         1 BAA      -0.474100
     15 C4           0.1930    -0.1060     4.6200 c3         1 BAA       0.224000
     16 C41          1.1630     0.8150     5.3500 c3         1 BAA      -0.108767
     17 C42         -1.2360     0.2140     5.0460 c3         1 BAA      -0.108767
     18 C43          0.5570    -1.5600     4.9020 c3         1 BAA      -0.108767
     19 HN31         0.6360     1.0200    -6.1220 hn         1 BAA       0.318500
     20 HN32        -0.5560     0.0210    -6.8550 hn         1 BAA       0.318500
     21 HA1          0.7950     1.1630    -3.7640 h1         1 BAA       0.079700
     22 HB11         1.9560    -1.6680    -3.9080 hc         1 BAA       0.051367
     23 HB12         2.5230    -0.2670    -4.8270 hc         1 BAA       0.051367
     24 HB13         2.6980    -0.2960    -3.0750 hc         1 BAA       0.051367
     25 HN1         -0.6080    -1.0570    -2.5230 hn         1 BAA       0.344500
     26 HA2         -0.6960    -1.2190    -0.2260 h1         1 BAA       0.082700
     27 HB21        -1.9320     1.5820    -0.3080 hc         1 BAA       0.052367
     28 HB22        -2.4860     0.1760    -1.2260 hc         1 BAA       0.052367
     29 HB23        -2.6230     0.1850     0.5280 hc         1 BAA       0.052367
     30 HN2          0.6670     1.0280     1.0390 hn         1 BAA       0.347500
     31 H411         1.0780     0.6610     6.4260 hc         1 BAA       0.049144
     32 H412         2.1960     0.6130     5.0640 hc         1 BAA       0.049144
     33 H413         0.9480     1.8650     5.1440 hc         1 BAA       0.049144
     34 H421        -1.4890     1.2490     4.8130 hc         1 BAA       0.049144
     35 H422        -1.9690    -0.4380     4.5770 hc         1 BAA       0.049144
     36 H423        -1.3230     0.0890     6.1260 hc         1 BAA       0.049144
     37 H431         1.5580    -1.7900     4.5310 hc         1 BAA       0.049144
     38 H432         0.5620    -1.7200     5.9810 hc         1 BAA       0.049144
     39 H433        -0.1480    -2.2600     4.4620 hc         1 BAA       0.049144
@<TRIPOS>BOND
     1     1     2 1   
     2     1    19 1   
     3     1    20 1   
     4     2     3 2   
     5     2     4 1   
     6     4     5 1   
     7     4     6 1   
     8     4    21 1   
     9     5    22 1   
    10     5    23 1   
    11     5    24 1   
    12     6     7 1   
    13     6    25 1   
    14     7     8 2   
    15     7     9 1   
    16     9    10 1   
    17     9    11 1   
    18     9    26 1   
    19    10    27 1   
    20    10    28 1   
    21    10    29 1   
    22    11    12 1   
    23    11    30 1   
    24    12    13 2   
    25    12    14 1   
    26    14    15 1   
    27    15    16 1   
    28    15    17 1   
    29    15    18 1   
    30    16    31 1   
    31    16    32 1   
    32    16    33 1   
    33    17    34 1   
    34    17    35 1   
    35    17    36 1   
    36    18    37 1   
    37    18    38 1   
    38    18    39 1   
@<TRIPOS>SUBSTRUCTURE
     1 BAA         1 TEMP              0 ****  ****    0 ROOT
