@<TRIPOS>MOLECULE
BAB
   44    47     1     0     0
SMALL
No Charge or Current Charge


@<TRIPOS>ATOM
      1 C1          -2.5970    -9.8960    -1.7900 ca         1 BAB      -0.214900
      2 C2          -1.6050    -9.5390    -2.7500 ca         1 BAB      -0.078000
      3 C3          -1.6040    -8.2600    -3.3500 ca         1 BAB      -0.029000
      4 C4          -2.6010    -7.3490    -2.9820 ca         1 BAB       0.127400
      5 C5          -3.5490    -7.6930    -2.0640 ca         1 BAB      -0.072200
      6 C6          -3.5920    -8.9460    -1.4410 ca         1 BAB      -0.036000
      7 C7          -2.5920   -11.2480    -1.1630 ce         1 BAB       0.513400
      8 C8          -3.8820    -5.6250    -2.7760 cc         1 BAB       0.433800
      9 C9          -4.4860    -4.2650    -2.9350 c3         1 BAB      -0.150000
     10 N1          -2.2220   -12.3360    -1.9080 nv         1 BAB      -0.557200
     11 N2          -2.9560   -11.3850     0.1500 nv         1 BAB      -0.541300
     12 N3          -2.7900    -6.0480    -3.4440 nd         1 BAB      -0.644100
     13 N4          -4.3670    -6.6120    -1.9250 na         1 BAB      -0.271600
     14 C10         -0.1320    -0.0670    -2.0980 ca         1 BAB      -0.208900
     15 C11         -1.2070     0.6680    -1.5180 ca         1 BAB      -0.040000
     16 C12         -2.5070     0.1200    -1.4470 ca         1 BAB      -0.042000
     17 C13         -2.7020    -1.1650    -1.9650 ca         1 BAB      -0.022200
     18 C14         -1.6780    -1.8790    -2.5240 ca         1 BAB      -0.071200
     19 C15         -0.3760    -1.3680    -2.6110 ca         1 BAB      -0.017000
     20 C16          1.2330     0.5230    -2.1670 ce         1 BAB       0.507400
     21 C17         -3.5380    -3.1440    -2.6350 cc         1 BAB       0.343800
     22 N5           1.3770     1.8550    -2.4520 nv         1 BAB      -0.550200
     23 N6           2.3240    -0.2740    -1.9440 nv         1 BAB      -0.534300
     24 N7          -3.8530    -1.9250    -2.0260 na         1 BAB      -0.255500
     25 N8          -2.1770    -3.0960    -2.9450 na         1 BAB      -0.210600
     26 H2          -0.8220   -10.2440    -3.0250 ha         1 BAB       0.148000
     27 H3          -0.8470    -7.9840    -4.0790 ha         1 BAB       0.160000
     28 H6          -4.3780    -9.1770    -0.7250 ha         1 BAB       0.150000
     29 H91         -4.8450    -4.1600    -3.9640 hc         1 BAB       0.130700
     30 H92         -5.3700    -4.1800    -2.2940 hc         1 BAB       0.130700
     31 HN21        -2.7480   -12.2560     0.6190 hn         1 BAB       0.387250
     32 HN22        -2.9990   -10.5510     0.7190 hn         1 BAB       0.387250
     33 HN4         -5.1780    -6.5320    -1.3240 hn         1 BAB       0.394000
     34 H1          -1.0380     1.6630    -1.1060 ha         1 BAB       0.166000
     35 H4          -3.3270     0.6800    -1.0010 ha         1 BAB       0.185000
     36 H5           0.4160    -1.9570    -3.0750 ha         1 BAB       0.162000
     37 H2'1         3.2200     0.1680    -1.7870 hn         1 BAB       0.392000
     38 H2'2         2.1730    -1.1760    -1.5160 hn         1 BAB       0.392000
     39 H7          -1.6620    -3.8490    -3.3930 hn         1 BAB       0.455000
     40 HN1          2.2940     2.1990    -2.7030 hn         1 BAB       0.392000
     41 HN2          0.5790     2.3480    -2.8300 hn         1 BAB       0.392000
     42 HN3         -4.7730    -1.6510    -1.7000 hn         1 BAB       0.424000
     43 HN5         -2.4260   -13.2580    -1.5490 hn         1 BAB       0.387250
     44 HN6         -2.1760   -12.2270    -2.9120 hn         1 BAB       0.387250
@<TRIPOS>BOND
     1     1     2 ar  
     2     1     6 ar  
     3     1     7 1   
     4     2     3 ar  
     5     2    26 1   
     6     3     4 ar  
     7     3    27 1   
     8     4     5 ar  
     9     4    12 1   
    10     5     6 ar  
    11     5    13 1   
    12     6    28 1   
    13     7    10 2   
    14     7    11 1   
    15     8     9 1   
    16     8    12 2   
    17     8    13 1   
    18     9    21 1   
    19     9    29 1   
    20     9    30 1   
    21    10    43 1   
    22    10    44 1   
    23    11    31 1   
    24    11    32 1   
    25    13    33 1   
    26    14    15 ar  
    27    14    19 ar  
    28    14    20 1   
    29    15    16 ar  
    30    15    34 1   
    31    16    17 ar  
    32    16    35 1   
    33    17    18 ar  
    34    17    24 1   
    35    18    19 ar  
    36    18    25 1   
    37    19    36 1   
    38    20    22 2   
    39    20    23 1   
    40    21    24 2   
    41    21    25 1   
    42    22    40 1   
    43    22    41 1   
    44    23    37 1   
    45    23    38 1   
    46    24    42 1   
    47    25    39 1   
@<TRIPOS>SUBSTRUCTURE
     1 BAB         1 TEMP              0 ****  ****    0 ROOT
