@<TRIPOS>MOLECULE
BAB
   44    47     1     0     0
SMALL
abcg2


@<TRIPOS>ATOM
      1 C1          -2.6220    -9.9260    -1.8860 ca         1 BAB      -0.214900
      2 C2          -1.3500    -9.3560    -2.0800 ca         1 BAB      -0.078000
      3 C3          -1.1800    -7.9890    -2.1400 ca         1 BAB      -0.029000
      4 C4          -2.3120    -7.1880    -2.0110 ca         1 BAB       0.127400
      5 C5          -3.5740    -7.7730    -1.8180 ca         1 BAB      -0.072200
      6 C6          -3.7610    -9.1420    -1.7480 ca         1 BAB      -0.036000
      7 C7          -2.7540   -11.3890    -1.8320 ce         1 BAB       0.513400
      8 C8          -3.7170    -5.5900    -1.8750 cc         1 BAB       0.433800
      9 C9          -4.3620    -4.2480    -1.8330 c3         1 BAB      -0.150000
     10 N1          -2.0200   -12.1280    -2.6290 nv         1 BAB      -0.557200
     11 N2          -3.6040   -11.9270    -0.9920 nv         1 BAB      -0.541300
     12 N3          -2.4420    -5.8240    -2.0400 nd         1 BAB      -0.644100
     13 N4          -4.4440    -6.7190    -1.7390 na         1 BAB      -0.271600
     14 C10         -0.1660    -0.0450    -2.4300 ca         1 BAB      -0.208900
     15 C11         -1.2580     0.8260    -2.2640 ca         1 BAB      -0.040000
     16 C12         -2.5360     0.3490    -2.0590 ca         1 BAB      -0.042000
     17 C13         -2.6870    -1.0290    -2.0360 ca         1 BAB      -0.022200
     18 C14         -1.6050    -1.8910    -2.2020 ca         1 BAB      -0.071200
     19 C15         -0.3180    -1.4240    -2.3970 ca         1 BAB      -0.017000
     20 C16          1.1750     0.5230    -2.6510 ce         1 BAB       0.507400
     21 C17         -3.4220    -3.1080    -1.9440 cc         1 BAB       0.343800
     22 N5           1.3010     1.5680    -3.4290 nv         1 BAB      -0.550200
     23 N6           2.2060    -0.0310    -2.0640 nv         1 BAB      -0.534300
     24 N7          -3.7910    -1.8320    -1.8760 na         1 BAB      -0.255500
     25 N8          -2.1160    -3.1670    -2.1380 na         1 BAB      -0.210600
     26 H2          -0.4800    -9.9960    -2.1550 ha         1 BAB       0.148000
     27 H3          -0.2000    -7.5550    -2.2790 ha         1 BAB       0.160000
     28 H6          -4.7460    -9.5710    -1.6250 ha         1 BAB       0.150000
     29 H91         -5.0910    -4.1650    -2.6460 hc         1 BAB       0.130700
     30 H92         -4.9320    -4.1390    -0.9060 hc         1 BAB       0.130700
     31 HN21        -3.7780   -12.9200    -0.9650 hn         1 BAB       0.387250
     32 HN22        -4.0600   -11.3660    -0.2900 hn         1 BAB       0.387250
     33 HN4         -5.4430    -6.7730    -1.6050 hn         1 BAB       0.394000
     34 H1          -1.0990     1.8950    -2.2730 ha         1 BAB       0.166000
     35 H4          -3.3720     1.0200    -1.9220 ha         1 BAB       0.185000
     36 H5           0.5100    -2.1040    -2.5430 ha         1 BAB       0.162000
     37 H2'1         3.1510     0.2860    -2.2280 hn         1 BAB       0.392000
     38 H2'2         2.0800    -0.7410    -1.3610 hn         1 BAB       0.392000
     39 H7          -1.6390    -4.0730    -2.2110 hn         1 BAB       0.455000
     40 HN1          2.1890     2.0290    -3.5680 hn         1 BAB       0.392000
     41 HN2          0.5270     1.8970    -3.9830 hn         1 BAB       0.392000
     42 HN3         -4.7400    -1.5140    -1.7320 hn         1 BAB       0.424000
     43 HN5         -2.0340   -13.1360    -2.5910 hn         1 BAB       0.387250
     44 HN6         -1.4700   -11.7080    -3.3610 hn         1 BAB       0.387250
@<TRIPOS>BOND
     1     1     2 ar  
     2     1     6 ar  
     3     1     7 1   
     4     2     3 ar  
     5     2    26 1   
     6     3     4 ar  
     7     3    27 1   
     8     4     5 ar  
     9     4    12 1   
    10     5     6 ar  
    11     5    13 1   
    12     6    28 1   
    13     7    10 2   
    14     7    11 1   
    15     8     9 1   
    16     8    12 2   
    17     8    13 1   
    18     9    21 1   
    19     9    29 1   
    20     9    30 1   
    21    10    43 1   
    22    10    44 1   
    23    11    31 1   
    24    11    32 1   
    25    13    33 1   
    26    14    15 ar  
    27    14    19 ar  
    28    14    20 1   
    29    15    16 ar  
    30    15    34 1   
    31    16    17 ar  
    32    16    35 1   
    33    17    18 ar  
    34    17    24 1   
    35    18    19 ar  
    36    18    25 1   
    37    19    36 1   
    38    20    22 2   
    39    20    23 1   
    40    21    24 2   
    41    21    25 1   
    42    22    40 1   
    43    22    41 1   
    44    23    37 1   
    45    23    38 1   
    46    24    42 1   
    47    25    39 1   
@<TRIPOS>SUBSTRUCTURE
     1 BAB         1 TEMP              0 ****  ****    0 ROOT
