@<TRIPOS>MOLECULE
BAC
   19    19     1     0     0
SMALL
bcc


@<TRIPOS>ATOM
      1 C1          -0.7790     0.9270     5.0540 c          1 BAC       0.667900
      2 O1          -1.7650     0.2140     5.1390 o          1 BAC      -0.604100
      3 N2           0.3490     0.6260     4.4010 ns         1 BAC      -0.581900
      4 C3           0.5660    -0.6040     3.6670 c3         1 BAC       0.140300
      5 C4           0.2820    -0.4590     2.1930 ca         1 BAC      -0.101300
      6 C5           1.3200    -0.4060     1.2710 ca         1 BAC      -0.117000
      7 C6           1.0680    -0.2520    -0.0870 ca         1 BAC      -0.101500
      8 C7          -0.2440    -0.1500    -0.5200 ca         1 BAC       0.063900
      9 I7          -0.6460     0.0800    -2.5720 i          1 BAC      -0.176900
     10 C8          -1.3000    -0.2030     0.3810 ca         1 BAC      -0.101500
     11 C9          -1.0280    -0.3560     1.7320 ca         1 BAC      -0.117000
     12 H1          -0.7230     1.9170     5.5310 h5         1 BAC       0.008200
     13 HN2          1.0730     1.3250     4.3710 hn         1 BAC       0.314500
     14 H31         -0.0640    -1.3800     4.1010 h1         1 BAC       0.064700
     15 H32          1.6010    -0.9110     3.8190 h1         1 BAC       0.064700
     16 H5           2.3470    -0.4870     1.6070 ha         1 BAC       0.142000
     17 H6           1.8940    -0.2120    -0.7840 ha         1 BAC       0.146500
     18 H8          -2.3260    -0.1280     0.0460 ha         1 BAC       0.146500
     19 H9          -1.8520    -0.3990     2.4330 ha         1 BAC       0.142000
@<TRIPOS>BOND
     1     1     2 2   
     2     1     3 1   
     3     1    12 1   
     4     3     4 1   
     5     3    13 1   
     6     4     5 1   
     7     4    14 1   
     8     4    15 1   
     9     5     6 ar  
    10     5    11 ar  
    11     6     7 ar  
    12     6    16 1   
    13     7     8 ar  
    14     7    17 1   
    15     8     9 1   
    16     8    10 ar  
    17    10    11 ar  
    18    10    18 1   
    19    11    19 1   
@<TRIPOS>SUBSTRUCTURE
     1 BAC         1 TEMP              0 ****  ****    0 ROOT
