@<TRIPOS>MOLECULE
BAC
   19    19     1     0     0
SMALL
No Charge or Current Charge


@<TRIPOS>ATOM
      1 C1          -0.6640     1.0880     5.0620 c          1 BAC       0.600900
      2 O1          -1.7360     0.4980     5.1110 o          1 BAC      -0.604100
      3 N2           0.4410     0.5810     4.4130 ns         1 BAC      -0.514900
      4 C3           0.4780    -0.6940     3.6950 c3         1 BAC       0.140300
      5 C4           0.2240    -0.5010     2.2070 ca         1 BAC      -0.101300
      6 C5           1.3010    -0.2780     1.3250 ca         1 BAC      -0.099000
      7 C6           1.0630    -0.0970    -0.0500 ca         1 BAC      -0.083500
      8 C7          -0.2490    -0.1370    -0.5460 ca         1 BAC       0.201000
      9 I7          -0.6130     0.1440    -2.6630 i          1 BAC      -0.314000
     10 C8          -1.3270    -0.3570     0.3270 ca         1 BAC      -0.083500
     11 C9          -1.0910    -0.5380     1.7010 ca         1 BAC      -0.099000
     12 H1          -0.4720     2.0720     5.5270 h5         1 BAC       0.008200
     13 HN2          1.2780     1.1530     4.4300 hn         1 BAC       0.314500
     14 H31         -0.2680    -1.3810     4.1160 h1         1 BAC       0.064700
     15 H32          1.4650    -1.1520     3.8440 h1         1 BAC       0.064700
     16 H5           2.3200    -0.2440     1.7030 ha         1 BAC       0.124000
     17 H6           1.8930     0.0750    -0.7300 ha         1 BAC       0.128500
     18 H8          -2.3410    -0.3850    -0.0620 ha         1 BAC       0.128500
     19 H9          -1.9300    -0.7050     2.3740 ha         1 BAC       0.124000
@<TRIPOS>BOND
     1     1     2 2   
     2     1     3 1   
     3     1    12 1   
     4     3     4 1   
     5     3    13 1   
     6     4     5 1   
     7     4    14 1   
     8     4    15 1   
     9     5     6 ar  
    10     5    11 ar  
    11     6     7 ar  
    12     6    16 1   
    13     7     8 ar  
    14     7    17 1   
    15     8     9 1   
    16     8    10 ar  
    17    10    11 ar  
    18    10    18 1   
    19    11    19 1   
@<TRIPOS>SUBSTRUCTURE
     1 BAC         1 TEMP              0 ****  ****    0 ROOT
