@<TRIPOS>MOLECULE
BAD
   63    65     1     0     0
SMALL
abcg2


@<TRIPOS>ATOM
      1 C1           4.4100    -3.2900    -2.3350 ca         1 BAD      -0.114000
      2 C2           3.4060    -2.7180    -1.5660 ca         1 BAD      -0.096500
      3 C3           3.7040    -1.7430    -0.6190 ca         1 BAD      -0.124300
      4 C4           5.0280    -1.3430    -0.4580 ca         1 BAD      -0.096500
      5 C5           6.0330    -1.9100    -1.2290 ca         1 BAD      -0.114000
      6 C6           5.7280    -2.8860    -2.1700 ca         1 BAD      -0.105000
      7 C13          2.6030    -1.1660     0.2410 c3         1 BAD       0.216600
      8 C15          2.4410    -1.9690     1.5250 c3         1 BAD       0.153800
      9 N17          1.3070    -1.4990     2.3020 n8         1 BAD      -0.993200
     10 O19          2.8670     0.1820     0.5730 os         1 BAD      -0.466000
     11 C21          2.4290     1.1070    -0.3720 c6         1 BAD       0.348300
     12 O23          1.0360     1.2040    -0.4020 os         1 BAD      -0.455000
     13 C25          0.4370     1.6470     0.8060 c6         1 BAD       0.162300
     14 C27          0.9460     3.0430     1.1620 c6         1 BAD       0.152300
     15 C29          3.0700     2.4590    -0.0450 c6         1 BAD       0.126300
     16 C31          2.4690     3.0010     1.2480 c6         1 BAD       0.141300
     17 C34         -1.0600     1.6110     0.6010 c3         1 BAD       0.171600
     18 O36         -1.4740     0.2550     0.6130 os         1 BAD      -0.454000
     19 C38         -2.8270     0.0530     0.4440 c6         1 BAD       0.363300
     20 O40         -3.1010     0.0130    -0.9320 os         1 BAD      -0.460000
     21 C42         -4.4760    -0.1310    -1.2230 c6         1 BAD       0.180300
     22 C44         -4.9830    -1.4620    -0.6610 c6         1 BAD       0.141300
     23 C46         -4.6790    -1.5430     0.8300 c6         1 BAD       0.138300
     24 C48         -3.2040    -1.2760     1.0900 c6         1 BAD       0.112300
     25 O51          2.8080     3.3800    -1.0740 oh         1 BAD      -0.691000
     26 O53          2.9170     4.3020     1.5490 oh         1 BAD      -0.653000
     27 O55          0.3810     3.4050     2.4000 oh         1 BAD      -0.724000
     28 O57         -3.0090    -1.2460     2.4820 oh         1 BAD      -0.725000
     29 O59         -5.0780    -2.8180     1.2730 oh         1 BAD      -0.666000
     30 O61         -6.3650    -1.5420    -0.9030 oh         1 BAD      -0.718000
     31 C63         -4.6430    -0.0590    -2.7260 c3         1 BAD       0.171600
     32 O65         -4.2420     1.2160    -3.1680 oh         1 BAD      -0.710000
     33 H1           4.1620    -4.0460    -3.0700 ha         1 BAD       0.113500
     34 H2           2.3770    -3.0320    -1.7070 ha         1 BAD       0.117000
     35 H4           5.2780    -0.5800     0.2680 ha         1 BAD       0.117000
     36 H5           7.0580    -1.5870    -1.0970 ha         1 BAD       0.113500
     37 H6           6.5110    -3.3240    -2.7750 ha         1 BAD       0.113000
     38 H13          1.6570    -1.2400    -0.3120 h1         1 BAD       0.062700
     39 H15          2.3710    -3.0260     1.2340 h1         1 BAD       0.040700
     40 H15A         3.3490    -1.8740     2.1270 h1         1 BAD       0.040700
     41 HN17         0.4610    -1.6000     1.7540 hn         1 BAD       0.395500
     42 HN1A         1.1870    -2.0950     3.1110 hn         1 BAD       0.395500
     43 H21          2.7160     0.7960    -1.3870 h2         1 BAD       0.071700
     44 H25          0.6880     0.9650     1.6300 h1         1 BAD       0.087700
     45 H27          0.6460     3.7480     0.3720 h1         1 BAD       0.069700
     46 H29          4.1510     2.3080     0.0890 h1         1 BAD       0.044700
     47 H31          2.7330     2.3040     2.0550 h1         1 BAD       0.064700
     48 H34         -1.5580     2.1590     1.4080 h1         1 BAD       0.055200
     49 H34A        -1.3220     2.0970    -0.3450 h1         1 BAD       0.055200
     50 H38         -3.4100     0.8650     0.9190 h2         1 BAD       0.035700
     51 H42         -5.0500     0.6870    -0.7560 h1         1 BAD       0.059700
     52 H44         -4.4440    -2.2770    -1.1710 h1         1 BAD       0.054700
     53 H46         -5.2620    -0.7550     1.3330 h1         1 BAD       0.052700
     54 H48         -2.6060    -2.0720     0.6170 h1         1 BAD       0.062700
     55 HO51         3.3040     3.1160    -1.8550 ho         1 BAD       0.502000
     56 HO53         3.7860     4.2430     1.9570 ho         1 BAD       0.446000
     57 HO55         0.7510     4.2580     2.6520 ho         1 BAD       0.521000
     58 HO57        -2.0690    -1.1310     2.6560 ho         1 BAD       0.524000
     59 HO59        -5.0820    -2.8230     2.2350 ho         1 BAD       0.465000
     60 HO61        -6.6910    -2.3570    -0.5070 ho         1 BAD       0.525000
     61 H63         -4.0440    -0.8590    -3.1850 h1         1 BAD       0.036200
     62 H63A        -5.6910    -0.2620    -2.9680 h1         1 BAD       0.036200
     63 HO65        -4.4030     1.2640    -4.1150 ho         1 BAD       0.503000
@<TRIPOS>BOND
     1     1     2 ar  
     2     1     6 ar  
     3     1    33 1   
     4     2     3 ar  
     5     2    34 1   
     6     3     4 ar  
     7     3     7 1   
     8     4     5 ar  
     9     4    35 1   
    10     5     6 ar  
    11     5    36 1   
    12     6    37 1   
    13     7     8 1   
    14     7    10 1   
    15     7    38 1   
    16     8     9 1   
    17     8    39 1   
    18     8    40 1   
    19     9    41 1   
    20     9    42 1   
    21    10    11 1   
    22    11    12 1   
    23    11    15 1   
    24    11    43 1   
    25    12    13 1   
    26    13    14 1   
    27    13    17 1   
    28    13    44 1   
    29    14    16 1   
    30    14    27 1   
    31    14    45 1   
    32    15    16 1   
    33    15    25 1   
    34    15    46 1   
    35    16    26 1   
    36    16    47 1   
    37    17    18 1   
    38    17    48 1   
    39    17    49 1   
    40    18    19 1   
    41    19    20 1   
    42    19    24 1   
    43    19    50 1   
    44    20    21 1   
    45    21    22 1   
    46    21    31 1   
    47    21    51 1   
    48    22    23 1   
    49    22    30 1   
    50    22    52 1   
    51    23    24 1   
    52    23    29 1   
    53    23    53 1   
    54    24    28 1   
    55    24    54 1   
    56    25    55 1   
    57    26    56 1   
    58    27    57 1   
    59    28    58 1   
    60    29    59 1   
    61    30    60 1   
    62    31    32 1   
    63    31    61 1   
    64    31    62 1   
    65    32    63 1   
@<TRIPOS>SUBSTRUCTURE
     1 BAD         1 TEMP              0 ****  ****    0 ROOT
