@<TRIPOS>MOLECULE
BAD
   63    65     1     0     0
SMALL
No Charge or Current Charge


@<TRIPOS>ATOM
      1 C1           3.4210    -3.0450    -2.2940 ca         1 BAD      -0.114000
      2 C2           2.7430    -2.4420    -1.2210 ca         1 BAD      -0.096500
      3 C3           3.4640    -1.8160    -0.1840 ca         1 BAD      -0.124300
      4 C4           4.8740    -1.7940    -0.2410 ca         1 BAD      -0.096500
      5 C5           5.5510    -2.3980    -1.3150 ca         1 BAD      -0.114000
      6 C6           4.8250    -3.0250    -2.3420 ca         1 BAD      -0.105000
      7 C13          2.7160    -1.1520     0.9770 c3         1 BAD       0.216600
      8 C15          3.1160    -1.7610     2.3590 c3         1 BAD       0.153800
      9 N17          2.2850    -1.3020     3.5100 n8         1 BAD      -0.993200
     10 O19          3.0230     0.2600     0.9920 os         1 BAD      -0.466000
     11 C21          2.6320     1.0300    -0.1630 c6         1 BAD       0.348300
     12 O23          1.1900     1.0260    -0.2790 os         1 BAD      -0.455000
     13 C25          0.4870     1.6300     0.8440 c6         1 BAD       0.162300
     14 C27          0.9210     3.1200     1.0060 c6         1 BAD       0.152300
     15 C29          3.1680     2.5020    -0.0620 c6         1 BAD       0.126300
     16 C31          2.4740     3.2090     1.1400 c6         1 BAD       0.141300
     17 C34         -1.0420     1.4930     0.5750 c3         1 BAD       0.171600
     18 O36         -1.4310     0.1040     0.6300 os         1 BAD      -0.454000
     19 C38         -2.8210    -0.1690     0.3850 c6         1 BAD       0.363300
     20 O40         -3.1500     0.2040    -0.9670 os         1 BAD      -0.460000
     21 C42         -4.5590     0.0500    -1.2910 c6         1 BAD       0.180300
     22 C44         -4.9760    -1.4500    -1.1420 c6         1 BAD       0.141300
     23 C46         -4.6190    -1.9480     0.2910 c6         1 BAD       0.138300
     24 C48         -3.1160    -1.6920     0.5880 c6         1 BAD       0.112300
     25 O51          2.9240     3.2740    -1.2680 oh         1 BAD      -0.691000
     26 O53          2.8890     4.5860     1.2030 oh         1 BAD      -0.653000
     27 O55          0.2980     3.7450     2.1460 oh         1 BAD      -0.724000
     28 O57         -2.7710    -2.1530     1.9170 oh         1 BAD      -0.725000
     29 O59         -4.9240    -3.3460     0.4370 oh         1 BAD      -0.666000
     30 O61         -6.3800    -1.6550    -1.3900 oh         1 BAD      -0.718000
     31 C63         -4.7970     0.5960    -2.7390 c3         1 BAD       0.171600
     32 O65         -4.3780     1.9660    -2.9120 oh         1 BAD      -0.710000
     33 H1           2.8580    -3.5280    -3.0900 ha         1 BAD       0.113500
     34 H2           1.6550    -2.4620    -1.1970 ha         1 BAD       0.117000
     35 H4           5.4470    -1.3040     0.5430 ha         1 BAD       0.117000
     36 H5           6.6380    -2.3770    -1.3530 ha         1 BAD       0.113500
     37 H6           5.3490    -3.4910    -3.1730 ha         1 BAD       0.113000
     38 H13          1.6370    -1.3070     0.8390 h1         1 BAD       0.062700
     39 H15          3.0350    -2.8550     2.2960 h1         1 BAD       0.040700
     40 H15A         4.1660    -1.5170     2.5700 h1         1 BAD       0.040700
     41 HN17         1.3200    -1.6260     3.3790 hn         1 BAD       0.395500
     42 HN1A         2.5910    -1.7900     4.3600 hn         1 BAD       0.395500
     43 H21          3.0640     0.5690    -1.0640 h2         1 BAD       0.071700
     44 H25          0.7240     1.0790     1.7650 h1         1 BAD       0.087700
     45 H27          0.6270     3.6520     0.0880 h1         1 BAD       0.069700
     46 H29          4.2490     2.4570     0.1380 h1         1 BAD       0.044700
     47 H31          2.7700     2.6870     2.0640 h1         1 BAD       0.064700
     48 H34         -1.5900     2.0670     1.3340 h1         1 BAD       0.055200
     49 H34A        -1.2660     1.9290    -0.4070 h1         1 BAD       0.055200
     50 H38         -3.4320     0.4180     1.0870 h2         1 BAD       0.035700
     51 H42         -5.1500     0.6630    -0.5950 h1         1 BAD       0.059700
     52 H44         -4.3860    -2.0360    -1.8630 h1         1 BAD       0.054700
     53 H46         -5.2090    -1.3650     1.0150 h1         1 BAD       0.052700
     54 H48         -2.5200    -2.2410    -0.1580 h1         1 BAD       0.062700
     55 HO51         3.3900     2.8220    -2.0090 ho         1 BAD       0.502000
     56 HO53         3.0470     4.8340     0.2620 ho         1 BAD       0.446000
     57 HO55         0.8600     4.5340     2.3440 ho         1 BAD       0.521000
     58 HO57        -1.8790    -1.7770     2.1130 ho         1 BAD       0.524000
     59 HO59        -4.3810    -3.6380     1.2070 ho         1 BAD       0.465000
     60 HO61        -6.5810    -2.5350    -0.9870 ho         1 BAD       0.525000
     61 H63         -4.2570    -0.0540    -3.4400 h1         1 BAD       0.036200
     62 H63A        -5.8670     0.5020    -2.9690 h1         1 BAD       0.036200
     63 HO65        -4.5100     2.1890    -3.8630 ho         1 BAD       0.503000
@<TRIPOS>BOND
     1     1     2 ar  
     2     1     6 ar  
     3     1    33 1   
     4     2     3 ar  
     5     2    34 1   
     6     3     4 ar  
     7     3     7 1   
     8     4     5 ar  
     9     4    35 1   
    10     5     6 ar  
    11     5    36 1   
    12     6    37 1   
    13     7     8 1   
    14     7    10 1   
    15     7    38 1   
    16     8     9 1   
    17     8    39 1   
    18     8    40 1   
    19     9    41 1   
    20     9    42 1   
    21    10    11 1   
    22    11    12 1   
    23    11    15 1   
    24    11    43 1   
    25    12    13 1   
    26    13    14 1   
    27    13    17 1   
    28    13    44 1   
    29    14    16 1   
    30    14    27 1   
    31    14    45 1   
    32    15    16 1   
    33    15    25 1   
    34    15    46 1   
    35    16    26 1   
    36    16    47 1   
    37    17    18 1   
    38    17    48 1   
    39    17    49 1   
    40    18    19 1   
    41    19    20 1   
    42    19    24 1   
    43    19    50 1   
    44    20    21 1   
    45    21    22 1   
    46    21    31 1   
    47    21    51 1   
    48    22    23 1   
    49    22    30 1   
    50    22    52 1   
    51    23    24 1   
    52    23    29 1   
    53    23    53 1   
    54    24    28 1   
    55    24    54 1   
    56    25    55 1   
    57    26    56 1   
    58    27    57 1   
    59    28    58 1   
    60    29    59 1   
    61    30    60 1   
    62    31    32 1   
    63    31    61 1   
    64    31    62 1   
    65    32    63 1   
@<TRIPOS>SUBSTRUCTURE
     1 BAD         1 TEMP              0 ****  ****    0 ROOT
