@<TRIPOS>MOLECULE
BAE
   21    20     1     0     0
SMALL
abcg2


@<TRIPOS>ATOM
      1 CAB          1.9530     1.1220    -0.0030 c3         1 BAE      -0.080433
      2 CAH          1.0180    -0.0830    -0.0010 c3         1 BAE      -0.125000
      3 CAC          1.2790    -0.9270    -1.2560 c3         1 BAE      -0.080433
      4 CAD          1.2810    -0.9240     1.2560 c3         1 BAE      -0.080433
      5 CAG         -0.4410     0.3910    -0.0010 c          1 BAE       0.600100
      6 OAE         -0.7550     1.5740    -0.0110 o          1 BAE      -0.603100
      7 N           -1.3680    -0.5800     0.0080 ns         1 BAE      -0.510900
      8 CAA         -2.7850    -0.3020     0.0120 c3         1 BAE       0.096300
      9 H1           1.8140     1.7470    -0.8850 hc         1 BAE       0.039367
     10 H2           1.8130     1.7490     0.8780 hc         1 BAE       0.039367
     11 H3           2.9870     0.7750    -0.0020 hc         1 BAE       0.039367
     12 H4           2.3260    -1.2340    -1.2860 hc         1 BAE       0.039367
     13 H5           0.6730    -1.8340    -1.2830 hc         1 BAE       0.039367
     14 H6           1.0730    -0.3610    -2.1660 hc         1 BAE       0.039367
     15 H7           1.0710    -0.3580     2.1650 hc         1 BAE       0.039367
     16 H8           0.6810    -1.8340     1.2840 hc         1 BAE       0.039367
     17 H9           2.3290    -1.2260     1.2870 hc         1 BAE       0.039367
     18 H10         -1.0790    -1.5430     0.0240 hn         1 BAE       0.313500
     19 H11         -3.0900     0.2400     0.9080 h1         1 BAE       0.038367
     20 H12         -3.0840     0.2820    -0.8590 h1         1 BAE       0.038367
     21 H13         -3.3200    -1.2470    -0.0130 h1         1 BAE       0.038367
@<TRIPOS>BOND
     1     1     2 1   
     2     1     9 1   
     3     1    10 1   
     4     1    11 1   
     5     2     3 1   
     6     2     4 1   
     7     2     5 1   
     8     3    12 1   
     9     3    13 1   
    10     3    14 1   
    11     4    15 1   
    12     4    16 1   
    13     4    17 1   
    14     5     6 2   
    15     5     7 1   
    16     7     8 1   
    17     7    18 1   
    18     8    19 1   
    19     8    20 1   
    20     8    21 1   
@<TRIPOS>SUBSTRUCTURE
     1 BAE         1 TEMP              0 ****  ****    0 ROOT
