@<TRIPOS>MOLECULE
BAE
   21    20     1     0     0
SMALL
No Charge or Current Charge


@<TRIPOS>ATOM
      1 CAB          1.8090     1.1120     0.2570 c3         1 BAE      -0.080433
      2 CAH          1.0240    -0.1660    -0.1470 c3         1 BAE      -0.125000
      3 CAC          1.6110    -0.7430    -1.4650 c3         1 BAE      -0.080433
      4 CAD          1.1970    -1.2300     0.9790 c3         1 BAE      -0.080433
      5 CAG         -0.4720     0.2220    -0.3920 c          1 BAE       0.600100
      6 OAE         -0.8020     1.0430    -1.2380 o          1 BAE      -0.603100
      7 N           -1.4200    -0.4040     0.3900 ns         1 BAE      -0.510900
      8 CAA         -2.8610    -0.1630     0.2970 c3         1 BAE       0.096300
      9 H1           1.7580     1.8740    -0.5300 hc         1 BAE       0.039367
     10 H2           1.3970     1.5470     1.1760 hc         1 BAE       0.039367
     11 H3           2.8680     0.8840     0.4350 hc         1 BAE       0.039367
     12 H4           2.6640    -1.0240    -1.3370 hc         1 BAE       0.039367
     13 H5           1.0560    -1.6350    -1.7790 hc         1 BAE       0.039367
     14 H6           1.5560    -0.0080    -2.2770 hc         1 BAE       0.039367
     15 H7           0.8140    -0.8610     1.9390 hc         1 BAE       0.039367
     16 H8           0.6740    -2.1630     0.7300 hc         1 BAE       0.039367
     17 H9           2.2570    -1.4760     1.1220 hc         1 BAE       0.039367
     18 H10         -1.0830    -1.0720     1.0720 hn         1 BAE       0.313500
     19 H11         -3.0730     0.8940     0.5050 h1         1 BAE       0.038367
     20 H12         -3.2130    -0.4150    -0.7110 h1         1 BAE       0.038367
     21 H13         -3.3850    -0.7880     1.0310 h1         1 BAE       0.038367
@<TRIPOS>BOND
     1     1     2 1   
     2     1     9 1   
     3     1    10 1   
     4     1    11 1   
     5     2     3 1   
     6     2     4 1   
     7     2     5 1   
     8     3    12 1   
     9     3    13 1   
    10     3    14 1   
    11     4    15 1   
    12     4    16 1   
    13     4    17 1   
    14     5     6 2   
    15     5     7 1   
    16     7     8 1   
    17     7    18 1   
    18     8    19 1   
    19     8    20 1   
    20     8    21 1   
@<TRIPOS>SUBSTRUCTURE
     1 BAE         1 TEMP              0 ****  ****    0 ROOT
