@<TRIPOS>MOLECULE
BAF
   39    38     1     0     0
SMALL
No Charge or Current Charge


@<TRIPOS>ATOM
      1 N3          -0.0690    -0.5640    -4.8240 ns         1 BAF      -0.539900
      2 C1          -1.3220    -1.0810    -5.0630 c          1 BAF       0.596900
      3 O1          -2.3440    -0.6010    -4.5910 o          1 BAF      -0.580100
      4 CA1          0.2070     0.5760    -3.9730 c3         1 BAF       0.273100
      5 CB1          1.1770     1.5460    -4.6610 c3         1 BAF      -0.117100
      6 N1           0.7370     0.1450    -2.6950 ns         1 BAF      -0.520900
      7 C2           0.0390     0.1620    -1.5070 c          1 BAF       0.606100
      8 O2          -1.0990     0.6110    -1.4300 o          1 BAF      -0.586100
      9 CA2          0.8090    -0.4120    -0.2800 c3         1 BAF       0.050700
     10 CB2          1.0790    -1.9290    -0.4250 c3         1 BAF      -0.111100
     11 N2           0.0760    -0.1290     0.9720 ns         1 BAF      -0.499900
     12 C3           0.6120    -0.1540     2.2260 c          1 BAF       0.654100
     13 O3           1.7810    -0.3980     2.4750 o          1 BAF      -0.561000
     14 O4          -0.3790     0.1600     3.1140 os         1 BAF      -0.475100
     15 C4          -0.1530     0.2290     4.5420 c3         1 BAF       0.225000
     16 C41         -1.5320     0.6030     5.1290 c3         1 BAF      -0.109100
     17 C42          0.2850    -1.1630     5.0680 c3         1 BAF      -0.109100
     18 C43          0.8750     1.3470     4.8540 c3         1 BAF      -0.109100
     19 HN3          0.7090    -1.0310    -5.2710 hn         1 BAF       0.312500
     20 H1          -1.2990    -1.9650    -5.7270 h5         1 BAF       0.007200
     21 HA1         -0.7390     1.1070    -3.7930 h2         1 BAF       0.107700
     22 HB11         2.1390     1.0620    -4.8630 hc         1 BAF       0.050033
     23 HB12         0.7580     1.8950    -5.6130 hc         1 BAF       0.050033
     24 HB13         1.3560     2.4220    -4.0270 hc         1 BAF       0.050033
     25 HN1          1.6760    -0.2320    -2.6710 hn         1 BAF       0.308500
     26 HA2          1.7730     0.1130    -0.2400 h1         1 BAF       0.077700
     27 HB21         0.1350    -2.4850    -0.4850 hc         1 BAF       0.051700
     28 HB22         1.6590    -2.1400    -1.3320 hc         1 BAF       0.051700
     29 HB23         1.6480    -2.3090     0.4310 hc         1 BAF       0.051700
     30 HN2         -0.9050     0.1190     0.9180 hn         1 BAF       0.348500
     31 H411        -1.4820     0.6840     6.2210 hc         1 BAF       0.049367
     32 H412        -1.8760     1.5660     4.7320 hc         1 BAF       0.049367
     33 H413        -2.2810    -0.1570     4.8790 hc         1 BAF       0.049367
     34 H421        -0.3780    -1.9490     4.6870 hc         1 BAF       0.049367
     35 H422         1.3130    -1.4060     4.7780 hc         1 BAF       0.049367
     36 H423         0.2430    -1.1870     6.1630 hc         1 BAF       0.049367
     37 H431         0.6170     2.2720     4.3260 hc         1 BAF       0.049367
     38 H432         0.8880     1.5640     5.9290 hc         1 BAF       0.049367
     39 H433         1.8930     1.0590     4.5710 hc         1 BAF       0.049367
@<TRIPOS>BOND
     1     1     2 1   
     2     1     4 1   
     3     1    19 1   
     4     2     3 2   
     5     2    20 1   
     6     4     5 1   
     7     4     6 1   
     8     4    21 1   
     9     5    22 1   
    10     5    23 1   
    11     5    24 1   
    12     6     7 1   
    13     6    25 1   
    14     7     8 2   
    15     7     9 1   
    16     9    10 1   
    17     9    11 1   
    18     9    26 1   
    19    10    27 1   
    20    10    28 1   
    21    10    29 1   
    22    11    12 1   
    23    11    30 1   
    24    12    13 2   
    25    12    14 1   
    26    14    15 1   
    27    15    16 1   
    28    15    17 1   
    29    15    18 1   
    30    16    31 1   
    31    16    32 1   
    32    16    33 1   
    33    17    34 1   
    34    17    35 1   
    35    17    36 1   
    36    18    37 1   
    37    18    38 1   
    38    18    39 1   
@<TRIPOS>SUBSTRUCTURE
     1 BAF         1 TEMP              0 ****  ****    0 ROOT
