@<TRIPOS>MOLECULE
BAF
   39    38     1     0     0
SMALL
bcc


@<TRIPOS>ATOM
      1 N3           0.3530    -0.3520    -4.8450 ns         1 BAF      -0.606900
      2 C1          -0.3900    -1.4690    -4.8490 c          1 BAF       0.663900
      3 O1          -1.2960    -1.7080    -4.0730 o          1 BAF      -0.580100
      4 CA1          0.2050     0.6950    -3.8580 c3         1 BAF       0.273100
      5 CB1          0.9900     1.9200    -4.2920 c3         1 BAF      -0.117100
      6 N1           0.6310     0.2310    -2.5550 ns         1 BAF      -0.587900
      7 C2          -0.1830     0.0840    -1.4980 c          1 BAF       0.673100
      8 O2          -1.3400     0.4720    -1.4610 o          1 BAF      -0.586100
      9 CA2          0.4450    -0.6600    -0.3250 c3         1 BAF       0.050700
     10 CB2          0.2980    -2.1680    -0.5480 c3         1 BAF      -0.111100
     11 N2          -0.1940    -0.2170     0.8870 ns         1 BAF      -0.566900
     12 C3           0.4260    -0.2510     2.0830 c          1 BAF       0.770100
     13 O3           1.5820    -0.5930     2.2410 o          1 BAF      -0.610000
     14 O4          -0.4070     0.1520     3.0420 os         1 BAF      -0.451900
     15 C4          -0.0030     0.2890     4.4310 c3         1 BAF       0.201800
     16 C41         -1.2720     0.7980     5.1050 c3         1 BAF      -0.109100
     17 C42          0.3950    -1.0590     5.0200 c3         1 BAF      -0.109100
     18 C43          1.1060     1.3240     4.5740 c3         1 BAF      -0.109100
     19 HN3          1.1130    -0.2890    -5.5050 hn         1 BAF       0.312500
     20 H1          -0.0920    -2.1610    -5.6510 h5         1 BAF       0.007200
     21 HA1         -0.8500     0.9510    -3.7690 h2         1 BAF       0.107700
     22 HB11         2.0560     1.7000    -4.3740 hc         1 BAF       0.050033
     23 HB12         0.6380     2.2800    -5.2580 hc         1 BAF       0.050033
     24 HB13         0.8630     2.7180    -3.5630 hc         1 BAF       0.050033
     25 HN1          1.5860    -0.0850    -2.4740 hn         1 BAF       0.308500
     26 HA2          1.5070    -0.4130    -0.2650 h1         1 BAF       0.077700
     27 HB21        -0.7530    -2.4500    -0.6020 hc         1 BAF       0.051700
     28 HB22         0.7840    -2.4810    -1.4720 hc         1 BAF       0.051700
     29 HB23         0.7580    -2.7110     0.2770 hc         1 BAF       0.051700
     30 HN2         -1.1720     0.0260     0.8370 hn         1 BAF       0.348500
     31 H411        -1.0900     0.9590     6.1680 hc         1 BAF       0.049367
     32 H412        -1.5920     1.7470     4.6730 hc         1 BAF       0.049367
     33 H413        -2.0880     0.0810     5.0110 hc         1 BAF       0.049367
     34 H421        -0.3990    -1.7950     4.8800 hc         1 BAF       0.049367
     35 H422         1.3120    -1.4460     4.5830 hc         1 BAF       0.049367
     36 H423         0.5560    -0.9490     6.0930 hc         1 BAF       0.049367
     37 H431         0.8190     2.2670     4.1050 hc         1 BAF       0.049367
     38 H432         1.2790     1.5220     5.6320 hc         1 BAF       0.049367
     39 H433         2.0470     0.9910     4.1420 hc         1 BAF       0.049367
@<TRIPOS>BOND
     1     1     2 1   
     2     1     4 1   
     3     1    19 1   
     4     2     3 2   
     5     2    20 1   
     6     4     5 1   
     7     4     6 1   
     8     4    21 1   
     9     5    22 1   
    10     5    23 1   
    11     5    24 1   
    12     6     7 1   
    13     6    25 1   
    14     7     8 2   
    15     7     9 1   
    16     9    10 1   
    17     9    11 1   
    18     9    26 1   
    19    10    27 1   
    20    10    28 1   
    21    10    29 1   
    22    11    12 1   
    23    11    30 1   
    24    12    13 2   
    25    12    14 1   
    26    14    15 1   
    27    15    16 1   
    28    15    17 1   
    29    15    18 1   
    30    16    31 1   
    31    16    32 1   
    32    16    33 1   
    33    17    34 1   
    34    17    35 1   
    35    17    36 1   
    36    18    37 1   
    37    18    38 1   
    38    18    39 1   
@<TRIPOS>SUBSTRUCTURE
     1 BAF         1 TEMP              0 ****  ****    0 ROOT
