@<TRIPOS>MOLECULE
BAH
   45    48     1     0     0
SMALL
No Charge or Current Charge


@<TRIPOS>ATOM
      1 C1           4.9640     1.1210     0.0930 ca         1 BAH      -0.239900
      2 C2           5.1510     0.9110     1.4900 ca         1 BAH      -0.100000
      3 C3           4.2340     0.1380     2.2370 ca         1 BAH      -0.023000
      4 C4           3.1330    -0.4160     1.5750 ca         1 BAH       0.123400
      5 C5           2.9550    -0.2140     0.2380 ca         1 BAH      -0.090200
      6 C6           3.8360     0.5410    -0.5450 ca         1 BAH      -0.040000
      7 C7           5.9350     1.9370    -0.6900 ce         1 BAH       0.520400
      8 C8           1.3090    -1.4620     1.0520 cc         1 BAH       0.395800
      9 C9           0.0350    -2.3240     1.1080 c3         1 BAH       0.408400
     10 N1           6.2070     1.6020    -1.9880 nv         1 BAH      -0.567450
     11 N2           6.5460     3.0090    -0.0980 nv         1 BAH      -0.551550
     12 N3           2.1160    -1.2020     2.1110 nd         1 BAH      -0.567100
     13 N4           1.8130    -0.8700    -0.1090 na         1 BAH      -0.264600
     14 C10         -4.9230     0.7120    -0.7370 ca         1 BAH      -0.239900
     15 C11         -4.3140     0.5350    -2.0130 ca         1 BAH      -0.100000
     16 C12         -3.0830    -0.1460    -2.1430 ca         1 BAH      -0.023000
     17 C13         -2.4700    -0.6410    -0.9860 ca         1 BAH       0.123400
     18 C14         -3.0530    -0.4700     0.2340 ca         1 BAH      -0.090200
     19 C15         -4.2720     0.1950     0.4130 ca         1 BAH      -0.040000
     20 C16         -6.2220     1.4310    -0.6080 ce         1 BAH       0.520400
     21 C17         -1.1360    -1.5730     0.4460 cc         1 BAH       0.395800
     22 N5          -6.5010     2.4740    -1.4480 nv         1 BAH      -0.567450
     23 N6          -7.1210     1.0370     0.3450 nv         1 BAH      -0.551550
     24 N7          -1.2660    -1.3340    -0.8820 nd         1 BAH      -0.567100
     25 N8          -2.2270    -1.0530     1.1470 na         1 BAH      -0.264600
     26 O91          0.2650    -3.5940     0.4870 oh         1 BAH      -0.643000
     27 O92         -0.2770    -2.6700     2.4630 oh         1 BAH      -0.643000
     28 HC2          6.0150     1.3320     2.0020 ha         1 BAH       0.132000
     29 HC3          4.3770    -0.0260     3.3020 ha         1 BAH       0.160000
     30 HC6          3.6420     0.6840    -1.6070 ha         1 BAH       0.134500
     31 HN11         5.9160     0.6870    -2.3050 hn         1 BAH       0.380625
     32 HN12         7.0150     2.0140    -2.4350 hn         1 BAH       0.380625
     33 HN21         7.0240     3.6760    -0.6880 hn         1 BAH       0.380625
     34 HN22         6.1650     3.3450     0.7750 hn         1 BAH       0.380625
     35 HN4          1.3920    -0.9300    -1.0290 hn         1 BAH       0.392500
     36 H3          -4.7980     0.9090    -2.9140 ha         1 BAH       0.132000
     37 H4          -2.6190    -0.2850    -3.1160 ha         1 BAH       0.160000
     38 H5          -4.6890     0.3160     1.4120 ha         1 BAH       0.134500
     39 H1'1        -5.7340     2.8620    -1.9800 hn         1 BAH       0.380625
     40 H1'2        -7.2680     3.0910    -1.2180 hn         1 BAH       0.380625
     41 H2'1        -8.0700     1.3800     0.2800 hn         1 BAH       0.380625
     42 H2'2        -6.9800     0.1380     0.7840 hn         1 BAH       0.380625
     43 H6          -2.3660    -1.1280     2.1480 hn         1 BAH       0.392500
     44 H91         -0.6220    -3.9570     0.2770 ho         1 BAH       0.499500
     45 H92          0.5880    -2.6360     2.9310 ho         1 BAH       0.499500
@<TRIPOS>BOND
     1     1     2 ar  
     2     1     6 ar  
     3     1     7 1   
     4     2     3 ar  
     5     2    28 1   
     6     3     4 ar  
     7     3    29 1   
     8     4     5 ar  
     9     4    12 1   
    10     5     6 ar  
    11     5    13 1   
    12     6    30 1   
    13     7    10 2   
    14     7    11 1   
    15     8     9 1   
    16     8    12 2   
    17     8    13 1   
    18     9    21 1   
    19     9    26 1   
    20     9    27 1   
    21    10    31 1   
    22    10    32 1   
    23    11    33 1   
    24    11    34 1   
    25    13    35 1   
    26    14    15 ar  
    27    14    19 ar  
    28    14    20 1   
    29    15    16 ar  
    30    15    36 1   
    31    16    17 ar  
    32    16    37 1   
    33    17    18 ar  
    34    17    24 1   
    35    18    19 ar  
    36    18    25 1   
    37    19    38 1   
    38    20    22 2   
    39    20    23 1   
    40    21    24 2   
    41    21    25 1   
    42    22    39 1   
    43    22    40 1   
    44    23    41 1   
    45    23    42 1   
    46    25    43 1   
    47    26    44 1   
    48    27    45 1   
@<TRIPOS>SUBSTRUCTURE
     1 BAH         1 TEMP              0 ****  ****    0 ROOT
