@<TRIPOS>MOLECULE
BAH
   45    48     1     0     0
SMALL
abcg2


@<TRIPOS>ATOM
      1 C1           5.0710     0.9330    -0.0440 ca         1 BAH      -0.239900
      2 C2           4.9010     1.3370     1.2960 ca         1 BAH      -0.100000
      3 C3           3.8310     0.8980     2.0450 ca         1 BAH      -0.023000
      4 C4           2.9120     0.0440     1.4360 ca         1 BAH       0.123400
      5 C5           3.0980    -0.3490     0.0970 ca         1 BAH      -0.090200
      6 C6           4.1690     0.0780    -0.6660 ca         1 BAH      -0.040000
      7 C7           6.2240     1.4330    -0.8050 ce         1 BAH       0.520400
      8 C8           1.3030    -1.2430     0.9490 cc         1 BAH       0.395800
      9 C9           0.0290    -2.0460     1.0590 c3         1 BAH       0.408400
     10 N1           6.7960     0.6580    -1.6960 nv         1 BAH      -0.567450
     11 N2           6.6660     2.6490    -0.5840 nv         1 BAH      -0.551550
     12 N3           1.7760    -0.5340     1.9340 nd         1 BAH      -0.567100
     13 N4           2.0420    -1.1740    -0.1750 na         1 BAH      -0.264600
     14 C10         -5.0010     0.7170    -0.5510 ca         1 BAH      -0.239900
     15 C11         -4.1350     1.3930    -1.4330 ca         1 BAH      -0.100000
     16 C12         -2.7860     1.1160    -1.4620 ca         1 BAH      -0.023000
     17 C13         -2.2970     0.1500    -0.5820 ca         1 BAH       0.123400
     18 C14         -3.1750    -0.5070     0.2980 ca         1 BAH      -0.090200
     19 C15         -4.5350    -0.2470     0.3340 ca         1 BAH      -0.040000
     20 C16         -6.4370     1.0360    -0.5660 ce         1 BAH       0.520400
     21 C17         -1.1220    -1.2020     0.5490 cc         1 BAH       0.395800
     22 N5          -6.8170     2.2790    -0.7320 nv         1 BAH      -0.567450
     23 N6          -7.3090     0.0690    -0.4130 nv         1 BAH      -0.551550
     24 N7          -1.0220    -0.3130    -0.4000 nd         1 BAH      -0.567100
     25 N8          -2.3810    -1.3560     1.0150 na         1 BAH      -0.264600
     26 O91          0.1990    -3.1690     0.2730 oh         1 BAH      -0.643000
     27 O92         -0.1970    -2.4250     2.3740 oh         1 BAH      -0.643000
     28 HC2          5.6340     1.9820     1.7610 ha         1 BAH       0.132000
     29 HC3          3.7120     1.2020     3.0760 ha         1 BAH       0.160000
     30 HC6          4.2740    -0.2170    -1.7020 ha         1 BAH       0.134500
     31 HN11         6.5410    -0.3130    -1.7760 hn         1 BAH       0.380625
     32 HN12         7.5630     0.9810    -2.2680 hn         1 BAH       0.380625
     33 HN21         7.4700     3.0200    -1.0690 hn         1 BAH       0.380625
     34 HN22         6.1570     3.2840     0.0100 hn         1 BAH       0.380625
     35 HN4          1.8490    -1.6440    -1.0470 hn         1 BAH       0.392500
     36 H3          -4.5360     2.1200    -2.1270 ha         1 BAH       0.132000
     37 H4          -2.1300     1.6250    -2.1540 ha         1 BAH       0.160000
     38 H5          -5.1890    -0.7550     1.0300 ha         1 BAH       0.134500
     39 H1'1        -6.1490     3.0310    -0.7190 hn         1 BAH       0.380625
     40 H1'2        -7.7910     2.5340    -0.8030 hn         1 BAH       0.380625
     41 H2'1        -8.3010     0.2480    -0.3560 hn         1 BAH       0.380625
     42 H2'2        -7.0200    -0.8950    -0.4260 hn         1 BAH       0.380625
     43 H6          -2.6750    -1.9800     1.7530 hn         1 BAH       0.392500
     44 H91         -0.6480    -3.6020     0.1060 ho         1 BAH       0.499500
     45 H92          0.0560    -1.7050     2.9690 ho         1 BAH       0.499500
@<TRIPOS>BOND
     1     1     2 ar  
     2     1     6 ar  
     3     1     7 1   
     4     2     3 ar  
     5     2    28 1   
     6     3     4 ar  
     7     3    29 1   
     8     4     5 ar  
     9     4    12 1   
    10     5     6 ar  
    11     5    13 1   
    12     6    30 1   
    13     7    10 2   
    14     7    11 1   
    15     8     9 1   
    16     8    12 2   
    17     8    13 1   
    18     9    21 1   
    19     9    26 1   
    20     9    27 1   
    21    10    31 1   
    22    10    32 1   
    23    11    33 1   
    24    11    34 1   
    25    13    35 1   
    26    14    15 ar  
    27    14    19 ar  
    28    14    20 1   
    29    15    16 ar  
    30    15    36 1   
    31    16    17 ar  
    32    16    37 1   
    33    17    18 ar  
    34    17    24 1   
    35    18    19 ar  
    36    18    25 1   
    37    19    38 1   
    38    20    22 2   
    39    20    23 1   
    40    21    24 2   
    41    21    25 1   
    42    22    39 1   
    43    22    40 1   
    44    23    41 1   
    45    23    42 1   
    46    25    43 1   
    47    26    44 1   
    48    27    45 1   
@<TRIPOS>SUBSTRUCTURE
     1 BAH         1 TEMP              0 ****  ****    0 ROOT
