@<TRIPOS>MOLECULE
BAI
   36    39     1     0     0
SMALL
bcc


@<TRIPOS>ATOM
      1 C1           1.9370    -0.3840     0.8100 ca         1 BAI      -0.173900
      2 C2           0.5560    -0.6470     0.9070 ca         1 BAI      -0.091000
      3 C3          -0.0230    -1.1080     2.0750 ca         1 BAI      -0.146000
      4 C4           0.8230    -1.2970     3.1600 ca         1 BAI      -0.069200
      5 C5           2.2040    -1.0470     3.0880 ca         1 BAI       0.055400
      6 C6           2.7680    -0.5940     1.9010 ca         1 BAI      -0.007000
      7 C7           2.5330     0.1120    -0.4620 ce         1 BAI       0.661800
      8 C8           1.8210    -1.7160     5.0710 cc         1 BAI       0.394800
      9 C9           1.9670    -2.0900     6.5090 c3         1 BAI      -0.106000
     10 N1           1.6700     0.7660    -1.2950 nv         1 BAI      -0.966800
     11 N2           3.7640    -0.1340    -0.7040 n2         1 BAI      -0.824100
     12 N3           0.6160    -1.7200     4.4430 na         1 BAI      -0.270300
     13 N4           2.7940    -1.3180     4.3000 nd         1 BAI      -0.536100
     14 C10          3.6420     2.3970    10.0270 ca         1 BAI      -0.154000
     15 C11          2.4470     2.9870     9.5880 ca         1 BAI      -0.109000
     16 C12          1.6050     2.3440     8.6970 ca         1 BAI      -0.136000
     17 C13          2.0040     1.0850     8.2630 ca         1 BAI      -0.074200
     18 C14          3.1970     0.4790     8.6900 ca         1 BAI       0.069400
     19 C15          4.0310     1.1430     9.5870 ca         1 BAI      -0.062000
     20 C16          2.2740    -0.8980     7.3530 cc         1 BAI       0.416800
     21 N5           1.4410     0.1740     7.4090 na         1 BAI      -0.265300
     22 N6           3.3330    -0.7570     8.0990 nd         1 BAI      -0.557100
     23 H2          -0.0800    -0.5090     0.0420 ha         1 BAI       0.137000
     24 H3          -1.0830    -1.3120     2.1300 ha         1 BAI       0.137000
     25 H6           3.8290    -0.3970     1.8280 ha         1 BAI       0.173000
     26 H91          2.7830    -2.8020     6.6190 hc         1 BAI       0.086700
     27 H92          1.0560    -2.5760     6.8680 hc         1 BAI       0.086700
     28 HH11         0.8910     1.2560    -0.8870 hn         1 BAI       0.403800
     29 HH12         2.0680     1.2380    -2.0910 hn         1 BAI       0.403800
     30 HH21         4.0580     0.2950    -1.5770 hn         1 BAI       0.370400
     31 HN3         -0.2620    -2.0080     4.8460 hn         1 BAI       0.303700
     32 H4           2.1790     3.9700     9.9540 ha         1 BAI       0.130000
     33 H5           0.6840     2.8000     8.3600 ha         1 BAI       0.134000
     34 H7           4.9530     0.6900     9.9280 ha         1 BAI       0.148000
     35 H8           0.5620     0.2720     6.9250 hn         1 BAI       0.302700
     36 H1           4.2690     2.9360    10.7250 ha         1 BAI       0.132000
@<TRIPOS>BOND
     1     1     2 ar  
     2     1     6 ar  
     3     1     7 1   
     4     2     3 ar  
     5     2    23 1   
     6     3     4 ar  
     7     3    24 1   
     8     4     5 ar  
     9     4    12 1   
    10     5     6 ar  
    11     5    13 1   
    12     6    25 1   
    13     7    10 1   
    14     7    11 2   
    15     8     9 1   
    16     8    12 1   
    17     8    13 2   
    18     9    20 1   
    19     9    26 1   
    20     9    27 1   
    21    10    28 1   
    22    10    29 1   
    23    11    30 1   
    24    12    31 1   
    25    14    15 ar  
    26    14    19 ar  
    27    14    36 1   
    28    15    16 ar  
    29    15    32 1   
    30    16    17 ar  
    31    16    33 1   
    32    17    18 ar  
    33    17    21 1   
    34    18    19 ar  
    35    18    22 1   
    36    19    34 1   
    37    20    21 1   
    38    20    22 2   
    39    21    35 1   
@<TRIPOS>SUBSTRUCTURE
     1 BAI         1 TEMP              0 ****  ****    0 ROOT
