@<TRIPOS>MOLECULE
BAI
   36    39     1     0     0
SMALL
No Charge or Current Charge


@<TRIPOS>ATOM
      1 C1           1.9120    -0.3940     0.6840 ca         1 BAI      -0.173900
      2 C2           0.5140    -0.6440     0.8250 ca         1 BAI      -0.073000
      3 C3          -0.0240    -1.0660     2.0580 ca         1 BAI      -0.128000
      4 C4           0.8600    -1.2400     3.1250 ca         1 BAI      -0.069200
      5 C5           2.2020    -1.0290     3.0160 ca         1 BAI       0.055400
      6 C6           2.7640    -0.6100     1.8010 ca         1 BAI       0.011000
      7 C7           2.5030     0.0220    -0.6260 ce         1 BAI       0.661800
      8 C8           1.8580    -1.6550     5.0540 cc         1 BAI       0.394800
      9 C9           2.0450    -2.0320     6.4880 c3         1 BAI      -0.106000
     10 N1           1.6960     0.6200    -1.5270 nv         1 BAI      -1.077200
     11 N2           3.7410    -0.0670    -0.8890 n2         1 BAI      -0.824100
     12 N3           0.6260    -1.6380     4.4040 na         1 BAI      -0.320600
     13 N4           2.8510    -1.2860     4.2210 nd         1 BAI      -0.536100
     14 C10          3.6010     2.3760    10.2740 ca         1 BAI      -0.136000
     15 C11          2.4200     2.9970     9.7990 ca         1 BAI      -0.091000
     16 C12          1.6200     2.3530     8.8310 ca         1 BAI      -0.118000
     17 C13          2.0450     1.1000     8.3740 ca         1 BAI      -0.074200
     18 C14          3.1800     0.4900     8.8220 ca         1 BAI       0.069400
     19 C15          3.9910     1.1090     9.7850 ca         1 BAI      -0.044000
     20 C16          2.3130    -0.8540     7.3720 cc         1 BAI       0.416800
     21 N5           1.4830     0.2630     7.4620 na         1 BAI      -0.315600
     22 N6           3.3660    -0.7450     8.2070 nd         1 BAI      -0.557100
     23 H2          -0.1600    -0.5260    -0.0210 ha         1 BAI       0.119000
     24 H3          -1.0890    -1.2560     2.1710 ha         1 BAI       0.119000
     25 H6           3.8370    -0.4510     1.7320 ha         1 BAI       0.155000
     26 H91          2.8740    -2.7430     6.5650 hc         1 BAI       0.086700
     27 H92          1.1570    -2.5590     6.8540 hc         1 BAI       0.086700
     28 HH11         0.8090     0.9390    -1.1570 hn         1 BAI       0.459000
     29 HH12         2.1440     1.2550    -2.1780 hn         1 BAI       0.459000
     30 HH21         3.8620     0.0920    -1.8950 hn         1 BAI       0.370400
     31 HN3         -0.2660    -1.8910     4.8090 hn         1 BAI       0.354000
     32 H4           2.1280     3.9720    10.1820 ha         1 BAI       0.112000
     33 H5           0.7100     2.8150     8.4550 ha         1 BAI       0.116000
     34 H7           4.8960     0.6240    10.1430 ha         1 BAI       0.130000
     35 H8           0.6280     0.4120     6.9440 hn         1 BAI       0.353000
     36 H1           4.2130     2.8780    11.0210 ha         1 BAI       0.114000
@<TRIPOS>BOND
     1     1     2 ar  
     2     1     6 ar  
     3     1     7 1   
     4     2     3 ar  
     5     2    23 1   
     6     3     4 ar  
     7     3    24 1   
     8     4     5 ar  
     9     4    12 1   
    10     5     6 ar  
    11     5    13 1   
    12     6    25 1   
    13     7    10 1   
    14     7    11 2   
    15     8     9 1   
    16     8    12 1   
    17     8    13 2   
    18     9    20 1   
    19     9    26 1   
    20     9    27 1   
    21    10    28 1   
    22    10    29 1   
    23    11    30 1   
    24    12    31 1   
    25    14    15 ar  
    26    14    19 ar  
    27    14    36 1   
    28    15    16 ar  
    29    15    32 1   
    30    16    17 ar  
    31    16    33 1   
    32    17    18 ar  
    33    17    21 1   
    34    18    19 ar  
    35    18    22 1   
    36    19    34 1   
    37    20    21 1   
    38    20    22 2   
    39    21    35 1   
@<TRIPOS>SUBSTRUCTURE
     1 BAI         1 TEMP              0 ****  ****    0 ROOT
