@<TRIPOS>MOLECULE
BAJ
   91    95     1     0     0
SMALL
bcc


@<TRIPOS>ATOM
      1 C19         -4.3470     0.2790    -1.6140 c3         1 BAJ       0.200100
      2 C1          -5.2380     5.0200    -1.0500 ca         1 BAJ      -0.087500
      3 C15         -5.1990     2.5420    -1.5280 c3         1 BAJ       0.212100
      4 C2          -5.4980     6.1060    -0.2210 ca         1 BAJ      -0.174500
      5 C21         -3.6530    -0.7780    -0.7910 ca         1 BAJ      -0.031300
      6 C23         -2.2760    -0.8750    -0.9130 ca         1 BAJ      -0.114000
      7 C24         -1.5130    -1.7610    -0.1480 ca         1 BAJ      -0.086500
      8 C25         -2.1780    -2.5680     0.7690 ca         1 BAJ      -0.123000
      9 C26         -3.5550    -2.5000     0.8970 ca         1 BAJ      -0.086000
     10 C27         -4.3010    -1.6140     0.1310 ca         1 BAJ      -0.166300
     11 C3          -5.9700     5.8620     1.0520 ca         1 BAJ       0.135900
     12 C34         -5.7940    -1.6030     0.2850 c3         1 BAJ       0.721200
     13 C4          -6.1880     4.5790     1.5200 ca         1 BAJ      -0.174500
     14 C42         -0.0600    -1.8160    -0.3040 cc         1 BAJ       0.383800
     15 C46          2.0800    -2.3450    -0.2920 cd         1 BAJ      -0.098600
     16 C47          0.8500    -2.8180     0.0990 cc         1 BAJ      -0.294600
     17 C5          -5.9230     3.5110     0.6760 ca         1 BAJ      -0.087500
     18 C53          0.6900    -4.1620     0.7380 c6         1 BAJ       0.280100
     19 C55          3.1410    -4.2350     0.8260 c6         1 BAJ       0.205800
     20 C56          3.3820    -3.0330    -0.0910 c6         1 BAJ      -0.048100
     21 C6          -5.4500     3.7160    -0.6190 ca         1 BAJ      -0.107300
     22 C64          1.6220    -5.2390    -2.2210 c3         1 BAJ      -0.263300
     23 C72          3.0990     0.9570    -0.5710 c3         1 BAJ      -0.099400
     24 C74          4.2670     1.7690    -1.1170 c3         1 BAJ       0.173800
     25 C78          4.6530     3.0720     0.9220 c6         1 BAJ       0.161800
     26 C79          6.0660     2.6260     1.2980 c6         1 BAJ      -0.108900
     27 C80          7.1250     3.4890     0.6030 c6         1 BAJ      -0.047700
     28 C81          6.8290     3.5210    -0.9000 c6         1 BAJ      -0.108900
     29 C82          5.3750     3.9150    -1.1730 c6         1 BAJ       0.161800
     30 C89          8.5850     3.0960     0.9530 c3         1 BAJ      -0.039000
     31 C91          9.5610     4.0220     0.2210 c3         1 BAJ      -0.084100
     32 C93          8.8180     3.2630     2.4570 c3         1 BAJ      -0.084100
     33 C95          8.8990     1.6500     0.5610 c3         1 BAJ      -0.084100
     34 F36         -6.4150    -1.9680    -0.8510 f          1 BAJ      -0.233633
     35 F38         -6.2130    -2.4540     1.2290 f          1 BAJ      -0.233633
     36 F40         -6.2760    -0.4000     0.6160 f          1 BAJ      -0.233633
     37 N17         -4.4600     1.5020    -0.8420 n7         1 BAJ      -0.806200
     38 N44          0.5860    -0.8260    -0.9070 nd         1 BAJ      -0.505800
     39 N45          1.8670    -1.1610    -0.8980 na         1 BAJ       0.135400
     40 N54          1.9030    -4.9550     0.5320 n3         1 BAJ      -0.728500
     41 N76          4.3900     3.0800    -0.5080 n3         1 BAJ      -0.713600
     42 S62          1.8800    -6.0840    -0.6740 s6         1 BAJ       1.230900
     43 H1          -3.7850     0.4120    -2.5500 h1         1 BAJ       0.044700
     44 H2          -5.3480    -0.0300    -1.9150 h1         1 BAJ       0.044700
     45 H3          -4.8630     5.2030    -2.0500 ha         1 BAJ       0.143000
     46 H4          -6.1600     2.1170    -1.8370 h1         1 BAJ       0.038200
     47 H5          -4.7110     2.8880    -2.4520 h1         1 BAJ       0.038200
     48 H6          -5.3290     7.1190    -0.5620 ha         1 BAJ       0.149000
     49 H7          -1.7770    -0.2400    -1.6350 ha         1 BAJ       0.149000
     50 H8          -1.6350    -3.2470     1.4120 ha         1 BAJ       0.139000
     51 H9          -4.0330    -3.1500     1.6160 ha         1 BAJ       0.153000
     52 H10         -6.5590     4.4160     2.5230 ha         1 BAJ       0.149000
     53 H11         -6.0810     2.5010     1.0290 ha         1 BAJ       0.143000
     54 H12          0.5290    -4.0820     1.8170 h1         1 BAJ       0.078200
     55 H13         -0.1730    -4.6980     0.3410 h1         1 BAJ       0.078200
     56 H14          3.9830    -4.9200     0.8010 h1         1 BAJ       0.081200
     57 H15          3.0460    -3.8880     1.8560 h1         1 BAJ       0.081200
     58 H16          3.8200    -3.3420    -1.0450 hc         1 BAJ       0.065700
     59 H17          4.1150    -2.3760     0.3820 hc         1 BAJ       0.065700
     60 H18          2.4440    -4.5540    -2.4120 h1         1 BAJ       0.101367
     61 H19          1.5850    -5.9950    -3.0040 h1         1 BAJ       0.101367
     62 H20          0.6800    -4.6940    -2.1930 h1         1 BAJ       0.101367
     63 H21          2.5340     0.0310    -2.4470 h1         1 BAJ       0.064200
     64 H22          3.7820    -0.8330    -1.5660 h1         1 BAJ       0.064200
     65 H23          2.1990     1.5750    -0.5400 hc         1 BAJ       0.065700
     66 H24          3.3000     0.6200     0.4490 hc         1 BAJ       0.065700
     67 H25          5.1790     1.1550    -1.0400 h1         1 BAJ       0.028700
     68 H26          4.1070     1.9300    -2.1880 h1         1 BAJ       0.028700
     69 H27          3.9140     2.4490     1.4290 h1         1 BAJ       0.052700
     70 H28          4.4920     4.0910     1.2910 h1         1 BAJ       0.052700
     71 H29          6.1670     2.6820     2.3840 hc         1 BAJ       0.043950
     72 H30          6.2020     1.5730     1.0310 hc         1 BAJ       0.043950
     73 H31          6.9890     4.5170     0.9730 hc         1 BAJ       0.045700
     74 H32          7.4740     4.2430    -1.4060 hc         1 BAJ       0.043950
     75 H33          7.0470     2.5480    -1.3510 hc         1 BAJ       0.043950
     76 H34          5.2240     4.9460    -0.8330 h1         1 BAJ       0.052700
     77 H35          5.1790     3.9100    -2.2490 h1         1 BAJ       0.052700
     78 H36          9.5270     3.8880    -0.8610 hc         1 BAJ       0.032811
     79 H37          9.3510     5.0740     0.4330 hc         1 BAJ       0.032811
     80 H38         10.5870     3.8210     0.5390 hc         1 BAJ       0.032811
     81 H39          9.8630     3.0700     2.7080 hc         1 BAJ       0.032811
     82 H40          8.5840     4.2800     2.7830 hc         1 BAJ       0.032811
     83 H41          8.2120     2.5770     3.0490 hc         1 BAJ       0.032811
     84 H42          8.2920     0.9330     1.1150 hc         1 BAJ       0.032811
     85 H43          8.7360     1.4740    -0.5030 hc         1 BAJ       0.032811
     86 H44          9.9450     1.4190     0.7730 hc         1 BAJ       0.032811
     87 H45         -3.5330     1.8420    -0.6150 hn         1 BAJ       0.362800
     88 C70          2.8590    -0.2640    -1.4490 c3         1 BAJ       0.053300
     89 F13         -6.2220     6.9020     1.8650 f          1 BAJ      -0.146900
     90 O66          0.7130    -6.9230    -0.4470 o          1 BAJ      -0.603300
     91 O68          3.2000    -6.6950    -0.7040 o          1 BAJ      -0.603300
@<TRIPOS>BOND
     1     1     5 1   
     2     1    37 1   
     3     1    43 1   
     4     1    44 1   
     5     2     4 ar  
     6     2    21 ar  
     7     2    45 1   
     8     3    21 1   
     9     3    37 1   
    10     3    46 1   
    11     3    47 1   
    12     4    11 ar  
    13     4    48 1   
    14     5     6 ar  
    15     5    10 ar  
    16     6     7 ar  
    17     6    49 1   
    18     7     8 ar  
    19     7    14 1   
    20     8     9 ar  
    21     8    50 1   
    22     9    10 ar  
    23     9    51 1   
    24    10    12 1   
    25    11    13 ar  
    26    11    89 1   
    27    12    34 1   
    28    12    35 1   
    29    12    36 1   
    30    13    17 ar  
    31    13    52 1   
    32    14    16 1   
    33    14    38 2   
    34    15    16 2   
    35    15    20 1   
    36    15    39 1   
    37    16    18 1   
    38    17    21 ar  
    39    17    53 1   
    40    18    40 1   
    41    18    54 1   
    42    18    55 1   
    43    19    20 1   
    44    19    40 1   
    45    19    56 1   
    46    19    57 1   
    47    20    58 1   
    48    20    59 1   
    49    22    42 1   
    50    22    60 1   
    51    22    61 1   
    52    22    62 1   
    53    23    24 1   
    54    23    65 1   
    55    23    66 1   
    56    23    88 1   
    57    24    41 1   
    58    24    67 1   
    59    24    68 1   
    60    25    26 1   
    61    25    41 1   
    62    25    69 1   
    63    25    70 1   
    64    26    27 1   
    65    26    71 1   
    66    26    72 1   
    67    27    28 1   
    68    27    30 1   
    69    27    73 1   
    70    28    29 1   
    71    28    74 1   
    72    28    75 1   
    73    29    41 1   
    74    29    76 1   
    75    29    77 1   
    76    30    31 1   
    77    30    32 1   
    78    30    33 1   
    79    31    78 1   
    80    31    79 1   
    81    31    80 1   
    82    32    81 1   
    83    32    82 1   
    84    32    83 1   
    85    33    84 1   
    86    33    85 1   
    87    33    86 1   
    88    37    87 1   
    89    38    39 1   
    90    39    88 1   
    91    40    42 1   
    92    42    90 2   
    93    42    91 2   
    94    63    88 1   
    95    64    88 1   
@<TRIPOS>SUBSTRUCTURE
     1 BAJ         1 TEMP              0 ****  ****    0 ROOT
