@<TRIPOS>MOLECULE
BAJ
   91    95     1     0     0
SMALL
No Charge or Current Charge


@<TRIPOS>ATOM
      1 C19         -4.7700    -0.1400    -1.6520 c3         1 BAJ       0.200100
      2 C1          -4.9310     4.5580    -1.3640 ca         1 BAJ      -0.069500
      3 C15         -5.6860     2.1690    -1.8090 c3         1 BAJ       0.212100
      4 C2          -5.0310     5.7720    -0.6600 ca         1 BAJ      -0.156500
      5 C21         -3.9590    -1.0810    -0.7530 ca         1 BAJ      -0.031300
      6 C23         -2.5530    -1.0030    -0.8370 ca         1 BAJ      -0.096000
      7 C24         -1.7020    -1.8360    -0.0740 ca         1 BAJ      -0.086500
      8 C25         -2.3140    -2.7270     0.8320 ca         1 BAJ      -0.105000
      9 C26         -3.7110    -2.8170     0.9320 ca         1 BAJ      -0.068000
     10 C27         -4.5590    -2.0070     0.1440 ca         1 BAJ      -0.166300
     11 C3          -5.9860     5.9120     0.3580 ca         1 BAJ       0.171000
     12 C34         -6.0910    -2.1450     0.2790 c3         1 BAJ       0.357300
     13 C4          -6.8420     4.8480     0.6790 ca         1 BAJ      -0.156500
     14 C42         -0.2300    -1.6840    -0.1960 cc         1 BAJ       0.318500
     15 C46          1.9790    -1.9780    -0.0090 cd         1 BAJ      -0.149300
     16 C47          0.7860    -2.5640     0.2610 cc         1 BAJ      -0.229300
     17 C5          -6.7440     3.6340    -0.0240 ca         1 BAJ      -0.069500
     18 C53          0.6540    -3.9460     0.8630 c6         1 BAJ       0.280100
     19 C55          3.1170    -3.9020     1.1210 c6         1 BAJ       0.205800
     20 C56          3.3180    -2.6240     0.2590 c6         1 BAJ      -0.048100
     21 C6          -5.7880     3.4830    -1.0500 ca         1 BAJ      -0.107300
     22 C64          1.4490    -4.6560    -2.0830 c3         1 BAJ      -0.374100
     23 C72          3.0950     1.2020    -0.0330 c3         1 BAJ      -0.099400
     24 C74          4.1200     2.2250    -0.5650 c3         1 BAJ       0.173800
     25 C78          5.1760     2.7820     1.6490 c6         1 BAJ       0.161800
     26 C79          6.6040     2.2230     1.3850 c6         1 BAJ      -0.108900
     27 C80          7.5530     3.3190     0.7350 c6         1 BAJ      -0.047700
     28 C81          6.8690     3.9020    -0.5420 c6         1 BAJ      -0.108900
     29 C82          5.3850     4.3430    -0.2180 c6         1 BAJ       0.161800
     30 C89          9.0480     2.8290     0.5090 c3         1 BAJ      -0.039000
     31 C91          9.9290     3.9880    -0.0410 c3         1 BAJ      -0.084100
     32 C93          9.6830     2.3770     1.8570 c3         1 BAJ      -0.084100
     33 C95          9.1450     1.6380    -0.4880 c3         1 BAJ      -0.084100
     34 F36         -6.6510    -2.6170    -0.8590 f          1 BAJ      -0.112333
     35 F38         -6.4600    -2.9970     1.2630 f          1 BAJ      -0.112333
     36 F40         -6.6900    -0.9660     0.5610 f          1 BAJ      -0.112333
     37 N17         -4.9520     1.1760    -1.0100 n7         1 BAJ      -0.861400
     38 N44          0.2900    -0.5890    -0.7370 nd         1 BAJ      -0.505800
     39 N45          1.6600    -0.7730    -0.6270 na         1 BAJ       0.156800
     40 N54          1.9260    -4.6970     0.6920 n3         1 BAJ      -0.728500
     41 N76          4.5110     3.2780     0.4090 n3         1 BAJ      -0.713600
     42 S62          2.0750    -5.6540    -0.7360 s6         1 BAJ       1.200100
     43 H1          -4.2340    -0.0220    -2.6040 h1         1 BAJ       0.044700
     44 H2          -5.7410    -0.5850    -1.9000 h1         1 BAJ       0.044700
     45 H3          -4.1880     4.4530    -2.1530 ha         1 BAJ       0.125000
     46 H4          -6.6980     1.8060    -2.0360 h1         1 BAJ       0.038200
     47 H5          -5.1780     2.3420    -2.7690 h1         1 BAJ       0.038200
     48 H6          -4.3710     6.6010    -0.9020 ha         1 BAJ       0.131000
     49 H7          -2.1210    -0.2860    -1.5310 ha         1 BAJ       0.131000
     50 H8          -1.7310    -3.3400     1.5060 ha         1 BAJ       0.121000
     51 H9          -4.1270    -3.5260     1.6450 ha         1 BAJ       0.135000
     52 H10         -7.5790     4.9640     1.4700 ha         1 BAJ       0.131000
     53 H11         -7.4050     2.8070     0.2280 ha         1 BAJ       0.125000
     54 H12          0.4370    -3.8480     1.9370 h1         1 BAJ       0.078200
     55 H13         -0.1870    -4.5000     0.4180 h1         1 BAJ       0.078200
     56 H14          4.0370    -4.5060     1.1150 h1         1 BAJ       0.081200
     57 H15          2.9750    -3.5820     2.1630 h1         1 BAJ       0.081200
     58 H16          3.8070    -2.8890    -0.6880 hc         1 BAJ       0.065700
     59 H17          3.9970    -1.9330     0.7760 hc         1 BAJ       0.065700
     60 H18          2.0440    -3.7400    -2.1280 h1         1 BAJ       0.101367
     61 H19          1.5650    -5.2420    -2.9990 h1         1 BAJ       0.101367
     62 H20          0.3950    -4.4400    -1.8890 h1         1 BAJ       0.101367
     63 H21          2.1190     0.8050    -1.9320 h1         1 BAJ       0.064200
     64 H22          3.4650    -0.2890    -1.5670 h1         1 BAJ       0.064200
     65 H23          2.2340     1.7370     0.3860 hc         1 BAJ       0.065700
     66 H24          3.5410     0.6150     0.7770 hc         1 BAJ       0.065700
     67 H25          5.0040     1.6810    -0.9220 h1         1 BAJ       0.028700
     68 H26          3.6740     2.7100    -1.4440 h1         1 BAJ       0.028700
     69 H27          4.5690     2.0100     2.1430 h1         1 BAJ       0.052700
     70 H28          5.2600     3.6050     2.3750 h1         1 BAJ       0.052700
     71 H29          6.9700     1.8150     2.3510 hc         1 BAJ       0.043950
     72 H30          6.5290     1.3540     0.7200 hc         1 BAJ       0.043950
     73 H31          7.6240     4.1430     1.4590 hc         1 BAJ       0.045700
     74 H32          7.4160     4.7740    -0.9210 hc         1 BAJ       0.043950
     75 H33          6.8530     3.1590    -1.3490 hc         1 BAJ       0.043950
     76 H34          5.4360     5.2080     0.4610 h1         1 BAJ       0.052700
     77 H35          4.9200     4.7170    -1.1420 h1         1 BAJ       0.052700
     78 H36          9.6330     4.2730    -1.0570 hc         1 BAJ       0.032811
     79 H37          9.8560     4.8750     0.6000 hc         1 BAJ       0.032811
     80 H38         10.9850     3.6940    -0.0860 hc         1 BAJ       0.032811
     81 H39         10.7490     2.1510     1.7340 hc         1 BAJ       0.032811
     82 H40          9.5930     3.1630     2.6170 hc         1 BAJ       0.032811
     83 H41          9.2060     1.4700     2.2450 hc         1 BAJ       0.032811
     84 H42          8.5840     0.7670    -0.1300 hc         1 BAJ       0.032811
     85 H43          8.7610     1.9090    -1.4780 hc         1 BAJ       0.032811
     86 H44         10.1880     1.3240    -0.6160 hc         1 BAJ       0.032811
     87 H45         -4.0250     1.5610    -0.8020 hn         1 BAJ       0.418000
     88 C70          2.6060     0.2350    -1.1300 c3         1 BAJ       0.082600
     89 F13         -6.0810     7.0780     1.0330 f          1 BAJ      -0.182000
     90 O66          1.2130    -6.8240    -0.5430 o          1 BAJ      -0.532500
     91 O68          3.5100    -5.8520    -0.9650 o          1 BAJ      -0.532500
@<TRIPOS>BOND
     1     1     5 1   
     2     1    37 1   
     3     1    43 1   
     4     1    44 1   
     5     2     4 ar  
     6     2    21 ar  
     7     2    45 1   
     8     3    21 1   
     9     3    37 1   
    10     3    46 1   
    11     3    47 1   
    12     4    11 ar  
    13     4    48 1   
    14     5     6 ar  
    15     5    10 ar  
    16     6     7 ar  
    17     6    49 1   
    18     7     8 ar  
    19     7    14 1   
    20     8     9 ar  
    21     8    50 1   
    22     9    10 ar  
    23     9    51 1   
    24    10    12 1   
    25    11    13 ar  
    26    11    89 1   
    27    12    34 1   
    28    12    35 1   
    29    12    36 1   
    30    13    17 ar  
    31    13    52 1   
    32    14    16 1   
    33    14    38 2   
    34    15    16 2   
    35    15    20 1   
    36    15    39 1   
    37    16    18 1   
    38    17    21 ar  
    39    17    53 1   
    40    18    40 1   
    41    18    54 1   
    42    18    55 1   
    43    19    20 1   
    44    19    40 1   
    45    19    56 1   
    46    19    57 1   
    47    20    58 1   
    48    20    59 1   
    49    22    42 1   
    50    22    60 1   
    51    22    61 1   
    52    22    62 1   
    53    23    24 1   
    54    23    65 1   
    55    23    66 1   
    56    23    88 1   
    57    24    41 1   
    58    24    67 1   
    59    24    68 1   
    60    25    26 1   
    61    25    41 1   
    62    25    69 1   
    63    25    70 1   
    64    26    27 1   
    65    26    71 1   
    66    26    72 1   
    67    27    28 1   
    68    27    30 1   
    69    27    73 1   
    70    28    29 1   
    71    28    74 1   
    72    28    75 1   
    73    29    41 1   
    74    29    76 1   
    75    29    77 1   
    76    30    31 1   
    77    30    32 1   
    78    30    33 1   
    79    31    78 1   
    80    31    79 1   
    81    31    80 1   
    82    32    81 1   
    83    32    82 1   
    84    32    83 1   
    85    33    84 1   
    86    33    85 1   
    87    33    86 1   
    88    37    87 1   
    89    38    39 1   
    90    39    88 1   
    91    40    42 1   
    92    42    90 2   
    93    42    91 2   
    94    63    88 1   
    95    64    88 1   
@<TRIPOS>SUBSTRUCTURE
     1 BAJ         1 TEMP              0 ****  ****    0 ROOT
