@<TRIPOS>MOLECULE
BAK
   42    45     1     0     0
SMALL
abcg2


@<TRIPOS>ATOM
      1 C1           5.5590     0.5090    -0.0160 ca         1 BAK      -0.229900
      2 C2           4.9440     1.7720    -0.1640 ca         1 BAK      -0.112000
      3 C3           3.5760     1.8950    -0.2230 ca         1 BAK      -0.006000
      4 C4           2.8120     0.7270    -0.1430 ca         1 BAK       0.100900
      5 C5           3.4440    -0.5240    -0.0000 ca         1 BAK      -0.082700
      6 C6           4.8240    -0.6610     0.0740 ca         1 BAK      -0.044500
      7 C7           7.0280     0.4320     0.0350 ce         1 BAK       0.518400
      8 C8           1.2740    -0.7250    -0.0770 cc         1 BAK       0.372800
      9 C9          -0.0050    -1.4590    -0.0930 c          1 BAK       0.472500
     10 N1           7.5960    -0.3960     0.8770 nv         1 BAK      -0.565200
     11 N2           7.7340     1.1930    -0.7650 nv         1 BAK      -0.549300
     12 N3           1.4600     0.5640    -0.1840 nd         1 BAK      -0.481600
     13 N4           2.4310    -1.4270     0.0330 na         1 BAK      -0.266600
     14 C10         -5.5740     0.4970     0.0320 ca         1 BAK      -0.229900
     15 C11         -4.9570     1.7520     0.2340 ca         1 BAK      -0.112000
     16 C12         -3.5880     1.8750     0.2700 ca         1 BAK      -0.006000
     17 C13         -2.8240     0.7160     0.1130 ca         1 BAK       0.100900
     18 C14         -3.4570    -0.5270    -0.0850 ca         1 BAK      -0.082700
     19 C15         -4.8380    -0.6640    -0.1360 ca         1 BAK      -0.044500
     20 C16         -7.0430     0.4190     0.0160 ce         1 BAK       0.518400
     21 C17         -1.2850    -0.7270    -0.0560 cc         1 BAK       0.372800
     22 N5          -7.7290     1.1480     0.8620 nv         1 BAK      -0.565200
     23 N6          -7.6340    -0.3780    -0.8400 nv         1 BAK      -0.549300
     24 N7          -1.4720     0.5540     0.1240 nd         1 BAK      -0.481600
     25 N8          -2.4430    -1.4250    -0.1840 na         1 BAK      -0.266600
     26 O9          -0.0050    -2.6700    -0.1340 o          1 BAK      -0.487100
     27 H2           5.5560     2.6630    -0.2040 ha         1 BAK       0.134000
     28 H3           3.1060     2.8640    -0.3230 ha         1 BAK       0.164500
     29 H6           5.2920    -1.6320     0.1640 ha         1 BAK       0.137000
     30 HH11         7.0520    -0.8680     1.5810 hn         1 BAK       0.381500
     31 HH12         8.5960    -0.5280     0.9070 hn         1 BAK       0.381500
     32 HH21         8.7420     1.2160    -0.7340 hn         1 BAK       0.381500
     33 HH22         7.2880     1.7250    -1.4960 hn         1 BAK       0.381500
     34 HN4          2.5140    -2.4290     0.1190 hn         1 BAK       0.393000
     35 H4          -5.5690     2.6380     0.3340 ha         1 BAK       0.134000
     36 H5          -3.1190     2.8380     0.4140 ha         1 BAK       0.164500
     37 H7          -5.3050    -1.6320    -0.2660 ha         1 BAK       0.137000
     38 H1'1        -7.2650     1.6550     1.5990 hn         1 BAK       0.381500
     39 H1'2        -8.7380     1.1700     0.8580 hn         1 BAK       0.381500
     40 H2'1        -8.6350    -0.5090    -0.8480 hn         1 BAK       0.381500
     41 H2'2        -7.1100    -0.8280    -1.5730 hn         1 BAK       0.381500
     42 H8          -2.5260    -2.4210    -0.3220 hn         1 BAK       0.393000
@<TRIPOS>BOND
     1     1     2 ar  
     2     1     6 ar  
     3     1     7 1   
     4     2     3 ar  
     5     2    27 1   
     6     3     4 ar  
     7     3    28 1   
     8     4     5 ar  
     9     4    12 1   
    10     5     6 ar  
    11     5    13 1   
    12     6    29 1   
    13     7    10 2   
    14     7    11 1   
    15     8     9 1   
    16     8    12 2   
    17     8    13 1   
    18     9    21 1   
    19     9    26 2   
    20    10    30 1   
    21    10    31 1   
    22    11    32 1   
    23    11    33 1   
    24    13    34 1   
    25    14    15 ar  
    26    14    19 ar  
    27    14    20 1   
    28    15    16 ar  
    29    15    35 1   
    30    16    17 ar  
    31    16    36 1   
    32    17    18 ar  
    33    17    24 1   
    34    18    19 ar  
    35    18    25 1   
    36    19    37 1   
    37    20    22 2   
    38    20    23 1   
    39    21    24 2   
    40    21    25 1   
    41    22    38 1   
    42    22    39 1   
    43    23    40 1   
    44    23    41 1   
    45    25    42 1   
@<TRIPOS>SUBSTRUCTURE
     1 BAK         1 TEMP              0 ****  ****    0 ROOT
