@<TRIPOS>MOLECULE
BAK
   42    45     1     0     0
SMALL
No Charge or Current Charge


@<TRIPOS>ATOM
      1 C1           5.6370     0.5630     0.0000 ca         1 BAK      -0.229900
      2 C2           4.9350     1.8020     0.0370 ca         1 BAK      -0.112000
      3 C3           3.5220     1.8360     0.0400 ca         1 BAK      -0.006000
      4 C4           2.8270     0.6210     0.0060 ca         1 BAK       0.100900
      5 C5           3.4980    -0.5590    -0.0290 ca         1 BAK      -0.082700
      6 C6           4.8960    -0.6460    -0.0330 ca         1 BAK      -0.044500
      7 C7           7.1280     0.5340    -0.0040 ce         1 BAK       0.518400
      8 C8           1.2900    -0.9310    -0.0410 cc         1 BAK       0.372800
      9 C9          -0.0050    -1.6920    -0.0640 c          1 BAK       0.472500
     10 N1           7.7860    -0.4800     0.6380 nv         1 BAK      -0.565200
     11 N2           7.8200     1.5230    -0.6470 nv         1 BAK      -0.549300
     12 N3           1.4510     0.4170     0.0000 nd         1 BAK      -0.481600
     13 N4           2.5550    -1.5400    -0.0600 na         1 BAK      -0.266600
     14 C10         -5.6520     0.5540     0.0110 ca         1 BAK      -0.229900
     15 C11         -4.9510     1.7940     0.0500 ca         1 BAK      -0.112000
     16 C12         -3.5380     1.8300     0.0490 ca         1 BAK      -0.006000
     17 C13         -2.8410     0.6170     0.0090 ca         1 BAK       0.100900
     18 C14         -3.5110    -0.5640    -0.0290 ca         1 BAK      -0.082700
     19 C15         -4.9080    -0.6540    -0.0300 ca         1 BAK      -0.044500
     20 C16         -7.1420     0.5220     0.0130 ce         1 BAK       0.518400
     21 C17         -1.3030    -0.9330    -0.0400 cc         1 BAK       0.372800
     22 N5          -7.8350     1.4700     0.7160 nv         1 BAK      -0.565200
     23 N6          -7.8000    -0.4510    -0.6900 nv         1 BAK      -0.549300
     24 N7          -1.4660     0.4150     0.0020 nd         1 BAK      -0.481600
     25 N8          -2.5660    -1.5440    -0.0580 na         1 BAK      -0.266600
     26 O9          -0.0050    -2.9260    -0.1010 o          1 BAK      -0.487100
     27 H2           5.4770     2.7460     0.0770 ha         1 BAK       0.134000
     28 H3           2.9830     2.7800     0.0710 ha         1 BAK       0.164500
     29 H6           5.3850    -1.6180    -0.0750 ha         1 BAK       0.137000
     30 HH11         7.2530    -1.0480     1.2820 hn         1 BAK       0.381500
     31 HH12         8.7760    -0.3770     0.8190 hn         1 BAK       0.381500
     32 HH21         8.8030     1.3810    -0.8330 hn         1 BAK       0.381500
     33 HH22         7.3070     2.1230    -1.2790 hn         1 BAK       0.381500
     34 HN4          2.7170    -2.5400    -0.0910 hn         1 BAK       0.393000
     35 H4          -5.4950     2.7370     0.0680 ha         1 BAK       0.134000
     36 H5          -3.0010     2.7750     0.0750 ha         1 BAK       0.164500
     37 H7          -5.3960    -1.6280    -0.0470 ha         1 BAK       0.137000
     38 H1'1        -7.3180     2.0270     1.3830 hn         1 BAK       0.381500
     39 H1'2        -8.8180     1.3180     0.8980 hn         1 BAK       0.381500
     40 H2'1        -8.7900    -0.3350    -0.8590 hn         1 BAK       0.381500
     41 H2'2        -7.2710    -0.9820    -1.3670 hn         1 BAK       0.381500
     42 H8          -2.7270    -2.5450    -0.0880 hn         1 BAK       0.393000
@<TRIPOS>BOND
     1     1     2 ar  
     2     1     6 ar  
     3     1     7 1   
     4     2     3 ar  
     5     2    27 1   
     6     3     4 ar  
     7     3    28 1   
     8     4     5 ar  
     9     4    12 1   
    10     5     6 ar  
    11     5    13 1   
    12     6    29 1   
    13     7    10 2   
    14     7    11 1   
    15     8     9 1   
    16     8    12 2   
    17     8    13 1   
    18     9    21 1   
    19     9    26 2   
    20    10    30 1   
    21    10    31 1   
    22    11    32 1   
    23    11    33 1   
    24    13    34 1   
    25    14    15 ar  
    26    14    19 ar  
    27    14    20 1   
    28    15    16 ar  
    29    15    35 1   
    30    16    17 ar  
    31    16    36 1   
    32    17    18 ar  
    33    17    24 1   
    34    18    19 ar  
    35    18    25 1   
    36    19    37 1   
    37    20    22 2   
    38    20    23 1   
    39    21    24 2   
    40    21    25 1   
    41    22    38 1   
    42    22    39 1   
    43    23    40 1   
    44    23    41 1   
    45    25    42 1   
@<TRIPOS>SUBSTRUCTURE
     1 BAK         1 TEMP              0 ****  ****    0 ROOT
