@<TRIPOS>MOLECULE
BAL
   12    11     1     0     0
SMALL
bcc


@<TRIPOS>ATOM
      1 N           25.6140   -29.0990    82.4710 n8         1 BAL      -0.890800
      2 CB          26.0180   -30.3300    81.8020 c3         1 BAL       0.178800
      3 CA          24.8180   -31.0670    81.2360 c3         1 BAL      -0.210400
      4 C           24.0520   -30.3410    80.1100 c          1 BAL       0.930600
      5 O           24.6160   -29.3700    79.5620 o          1 BAL      -0.852800
      6 OXT         22.9310   -30.8070    79.8240 o          1 BAL      -0.852800
      7 H           26.4310   -28.6430    82.8570 hn         1 BAL       0.329300
      8 H2          25.2580   -28.4680    81.7630 hn         1 BAL       0.329300
      9 HB3         26.7530   -30.1690    81.0010 h1         1 BAL      -0.002800
     10 HB2         26.5090   -30.9700    82.5400 h1         1 BAL      -0.002800
     11 HA1         25.1500   -32.0340    80.8410 hc         1 BAL       0.023200
     12 HA2         24.1220   -31.3050    82.0460 hc         1 BAL       0.023200
@<TRIPOS>BOND
     1     1     2 1   
     2     1     7 1   
     3     1     8 1   
     4     2     3 1   
     5     2     9 1   
     6     2    10 1   
     7     3     4 1   
     8     3    11 1   
     9     3    12 1   
    10     4     5 1   
    11     4     6 1   
@<TRIPOS>SUBSTRUCTURE
     1 BAL         1 TEMP              0 ****  ****    0 ROOT
