@<TRIPOS>MOLECULE
BAL
   12    11     1     0     0
SMALL
No Charge or Current Charge


@<TRIPOS>ATOM
      1 N           25.3400   -29.3270    82.7640 n8         1 BAL      -0.890800
      2 CB          25.9770   -30.2330    81.8000 c3         1 BAL       0.178800
      3 CA          24.9620   -31.1490    81.0950 c3         1 BAL      -0.210400
      4 C           24.2520   -30.3830    79.9710 c          1 BAL       0.930600
      5 O           24.7780   -30.3540    78.8650 o          1 BAL      -0.852800
      6 OXT         23.1960   -29.8140    80.2170 o          1 BAL      -0.852800
      7 H           26.0470   -28.6830    83.1330 hn         1 BAL       0.329300
      8 H2          24.6770   -28.7250    82.2640 hn         1 BAL       0.329300
      9 HB3         26.5300   -29.6370    81.0620 h1         1 BAL      -0.002800
     10 HB2         26.6960   -30.8480    82.3560 h1         1 BAL      -0.002800
     11 HA1         25.5660   -31.9590    80.6680 hc         1 BAL       0.023200
     12 HA2         24.2510   -31.4920    81.8580 hc         1 BAL       0.023200
@<TRIPOS>BOND
     1     1     2 1   
     2     1     7 1   
     3     1     8 1   
     4     2     3 1   
     5     2     9 1   
     6     2    10 1   
     7     3     4 1   
     8     3    11 1   
     9     3    12 1   
    10     4     5 1   
    11     4     6 1   
@<TRIPOS>SUBSTRUCTURE
     1 BAL         1 TEMP              0 ****  ****    0 ROOT
