@<TRIPOS>MOLECULE
BAM
   18    18     1     0     0
SMALL
No Charge or Current Charge


@<TRIPOS>ATOM
      1 C1          -0.2020    -0.0270     0.0040 ca         1 BAM      -0.262900
      2 C2           0.5160     1.1590    -0.2750 ca         1 BAM      -0.061000
      3 C3           1.9220     1.1610    -0.2650 ca         1 BAM      -0.095000
      4 C4           2.6280    -0.0170     0.0250 ca         1 BAM      -0.035000
      5 C5           1.9260    -1.2010     0.3040 ca         1 BAM      -0.095000
      6 C6           0.5200    -1.2090     0.2940 ca         1 BAM      -0.061000
      7 C           -1.6920    -0.0330    -0.0070 ce         1 BAM       0.523400
      8 N1          -2.3730     1.0760     0.4150 nv         1 BAM      -0.569700
      9 N2          -2.3600    -1.1450    -0.4390 nv         1 BAM      -0.553800
     10 HC21        -0.0080     2.0830    -0.5160 ha         1 BAM       0.126000
     11 HC31         2.4650     2.0780    -0.4850 ha         1 BAM       0.148000
     12 HC41         3.7170    -0.0130     0.0330 ha         1 BAM       0.148000
     13 HC51         2.4720    -2.1140     0.5320 ha         1 BAM       0.148000
     14 HC61        -0.0000    -2.1360     0.5270 ha         1 BAM       0.126000
     15 HN11        -1.8520     1.7760     0.9240 hn         1 BAM       0.378500
     16 HN12        -3.3600     0.9900     0.6170 hn         1 BAM       0.378500
     17 HN21        -3.3440    -1.0620    -0.6520 hn         1 BAM       0.378500
     18 HN22        -1.8310    -1.8470    -0.9390 hn         1 BAM       0.378500
@<TRIPOS>BOND
     1     1     2 ar  
     2     1     6 ar  
     3     1     7 1   
     4     2     3 ar  
     5     2    10 1   
     6     3     4 ar  
     7     3    11 1   
     8     4     5 ar  
     9     4    12 1   
    10     5     6 ar  
    11     5    13 1   
    12     6    14 1   
    13     7     8 2   
    14     7     9 1   
    15     8    15 1   
    16     8    16 1   
    17     9    17 1   
    18     9    18 1   
@<TRIPOS>SUBSTRUCTURE
     1 BAM         1 TEMP              0 ****  ****    0 ROOT
