@<TRIPOS>MOLECULE
BAM
   18    18     1     0     0
SMALL
bcc


@<TRIPOS>ATOM
      1 C1          -0.1910    -0.0280     0.0030 ca         1 BAM      -0.262900
      2 C2           0.5020     1.1530    -0.2590 ca         1 BAM      -0.079000
      3 C3           1.8870     1.1530    -0.2520 ca         1 BAM      -0.113000
      4 C4           2.5820    -0.0180     0.0250 ca         1 BAM      -0.053000
      5 C5           1.8910    -1.1930     0.2900 ca         1 BAM      -0.113000
      6 C6           0.5060    -1.2040     0.2760 ca         1 BAM      -0.079000
      7 C           -1.6620    -0.0320    -0.0060 ce         1 BAM       0.523400
      8 N1          -2.3090     1.0060     0.4650 nv         1 BAM      -0.469100
      9 N2          -2.2960    -1.0740    -0.4870 nv         1 BAM      -0.453200
     10 HC21        -0.0300     2.0650    -0.4960 ha         1 BAM       0.144000
     11 HC31         2.4230     2.0670    -0.4680 ha         1 BAM       0.166000
     12 HC41         3.6630    -0.0130     0.0330 ha         1 BAM       0.166000
     13 HC51         2.4310    -2.1030     0.5160 ha         1 BAM       0.166000
     14 HC61        -0.0220    -2.1200     0.5050 ha         1 BAM       0.144000
     15 HN11        -1.8200     1.7450     0.9420 hn         1 BAM       0.328200
     16 HN12        -3.3150     1.0750     0.4280 hn         1 BAM       0.328200
     17 HN21        -3.3020    -1.1500    -0.4620 hn         1 BAM       0.328200
     18 HN22        -1.7960    -1.8100    -0.9560 hn         1 BAM       0.328200
@<TRIPOS>BOND
     1     1     2 ar  
     2     1     6 ar  
     3     1     7 1   
     4     2     3 ar  
     5     2    10 1   
     6     3     4 ar  
     7     3    11 1   
     8     4     5 ar  
     9     4    12 1   
    10     5     6 ar  
    11     5    13 1   
    12     6    14 1   
    13     7     8 2   
    14     7     9 1   
    15     8    15 1   
    16     8    16 1   
    17     9    17 1   
    18     9    18 1   
@<TRIPOS>SUBSTRUCTURE
     1 BAM         1 TEMP              0 ****  ****    0 ROOT
