@<TRIPOS>MOLECULE
BAN
   56    57     1     0     0
SMALL
bcc


@<TRIPOS>ATOM
      1 OH1          6.4570    -1.4520    -0.6990 oh         1 BAN      -0.385100
      2 N1           5.1380    -1.7260    -0.8940 ns         1 BAN      -0.457400
      3 C1           4.5410    -2.6860    -0.1620 c          1 BAN       0.672100
      4 O1           5.0590    -3.2350     0.7880 o          1 BAN      -0.532100
      5 CA2          3.1110    -2.9640    -0.6120 c3         1 BAN      -0.218700
      6 CB2          2.7430    -4.4320    -0.3640 c3         1 BAN      -0.010100
      7 CG2          1.4140    -4.7850    -0.9760 ca         1 BAN      -0.102300
      8 CD1          0.2260    -4.6130    -0.2700 ca         1 BAN      -0.120000
      9 CD2          1.3510    -5.2650    -2.2830 ca         1 BAN      -0.120000
     10 CE1         -0.9950    -4.9160    -0.8580 ca         1 BAN      -0.124000
     11 CE2          0.1330    -5.5740    -2.8710 ca         1 BAN      -0.124000
     12 CZ2         -1.0460    -5.4010    -2.1570 ca         1 BAN      -0.124000
     13 C2           2.2040    -2.0340     0.1880 c          1 BAN       0.671100
     14 O2           2.1030    -2.1340     1.3990 o          1 BAN      -0.571100
     15 N3           1.5680    -1.0890    -0.5190 ns         1 BAN      -0.561900
     16 CA3          0.6880    -0.1360     0.1140 c3         1 BAN       0.046700
     17 CB3          0.3960     1.0150    -0.8400 c3         1 BAN      -0.105100
     18 C3          -0.6220    -0.8120     0.5130 c          1 BAN       0.652100
     19 O3          -1.2240    -1.5450    -0.2510 o          1 BAN      -0.591100
     20 N4          -1.0980    -0.4930     1.7280 ns         1 BAN      -0.553900
     21 CA4         -2.3360    -1.0530     2.1820 c3         1 BAN       0.027000
     22 C4          -2.2330    -2.5640     2.3540 c          1 BAN       0.658100
     23 O4          -1.2220    -3.0940     2.7590 o          1 BAN      -0.541100
     24 C10         -3.6640    -4.5820     2.1480 ca         1 BAN       0.124600
     25 C5          -4.9770    -4.9760     1.8570 ca         1 BAN      -0.191500
     26 C6          -5.3500    -6.3000     1.9070 ca         1 BAN      -0.029500
     27 C7          -4.4020    -7.2560     2.2530 ca         1 BAN      -0.218200
     28 C8          -3.0970    -6.8880     2.5430 ca         1 BAN      -0.029500
     29 C9          -2.7240    -5.5590     2.4920 ca         1 BAN      -0.191500
     30 N5          -4.7830    -8.6500     2.3100 no         1 BAN       0.320200
     31 O5          -5.9220    -8.9430     2.0220 o          1 BAN      -0.214500
     32 O6          -3.9460    -9.4590     2.6420 o          1 BAN      -0.214500
     33 N2          -3.3860    -3.2280     2.0550 ns         1 BAN      -0.469100
     34 H1           6.4880    -0.6630    -0.1430 ho         1 BAN       0.409000
     35 H2           4.7760    -1.4330    -1.7900 hn         1 BAN       0.328500
     36 H5           3.0170    -2.7510    -1.6810 hc         1 BAN       0.060700
     37 H6           2.7350    -4.6260     0.7090 hc         1 BAN       0.075700
     38 H7           3.5210    -5.0630    -0.7970 hc         1 BAN       0.075700
     39 H9           0.2500    -4.2310     0.7420 ha         1 BAN       0.136500
     40 H11          2.2690    -5.4040    -2.8430 ha         1 BAN       0.136500
     41 H13         -1.9090    -4.7700    -0.2980 ha         1 BAN       0.129000
     42 H15          0.1050    -5.9530    -3.8850 ha         1 BAN       0.129000
     43 H17         -1.9990    -5.6400    -2.6120 ha         1 BAN       0.129000
     44 H21          1.6090    -1.1080    -1.5250 hn         1 BAN       0.324500
     45 H22          1.1890     0.2600     1.0010 h1         1 BAN       0.076700
     46 H23         -0.1060     0.6650    -1.7420 hc         1 BAN       0.052367
     47 H24         -0.2450     1.7530    -0.3600 hc         1 BAN       0.052367
     48 H25          1.3230     1.5100    -1.1290 hc         1 BAN       0.052367
     49 H28         -0.5310     0.0270     2.3760 hn         1 BAN       0.335500
     50 H29         -2.5740    -0.6210     3.1540 h1         1 BAN       0.069200
     51 H39         -3.1520    -0.7860     1.5070 h1         1 BAN       0.069200
     52 H33         -5.7160    -4.2310     1.5910 ha         1 BAN       0.160000
     53 H34         -6.3690    -6.5730     1.6780 ha         1 BAN       0.170500
     54 H36         -2.3550    -7.6280     2.8080 ha         1 BAN       0.170500
     55 H37         -1.7050    -5.2970     2.7190 ha         1 BAN       0.160000
     56 H8          -4.1530    -2.6590     1.7250 hn         1 BAN       0.323500
@<TRIPOS>BOND
     1     1     2 1   
     2     1    34 1   
     3     2     3 1   
     4     2    35 1   
     5     3     4 2   
     6     3     5 1   
     7     5     6 1   
     8     5    13 1   
     9     5    36 1   
    10     6     7 1   
    11     6    37 1   
    12     6    38 1   
    13     7     8 ar  
    14     7     9 ar  
    15     8    10 ar  
    16     8    39 1   
    17     9    11 ar  
    18     9    40 1   
    19    10    12 ar  
    20    10    41 1   
    21    11    12 ar  
    22    11    42 1   
    23    12    43 1   
    24    13    14 2   
    25    13    15 1   
    26    15    16 1   
    27    15    44 1   
    28    16    17 1   
    29    16    18 1   
    30    16    45 1   
    31    17    46 1   
    32    17    47 1   
    33    17    48 1   
    34    18    19 2   
    35    18    20 1   
    36    20    21 1   
    37    20    49 1   
    38    21    22 1   
    39    21    50 1   
    40    21    51 1   
    41    22    23 2   
    42    22    33 1   
    43    24    25 ar  
    44    24    29 ar  
    45    24    33 1   
    46    25    26 ar  
    47    25    52 1   
    48    26    27 ar  
    49    26    53 1   
    50    27    28 ar  
    51    27    30 1   
    52    28    29 ar  
    53    28    54 1   
    54    29    55 1   
    55    30    31 1   
    56    30    32 1   
    57    33    56 1   
@<TRIPOS>SUBSTRUCTURE
     1 BAN         1 TEMP              0 ****  ****    0 ROOT
