@<TRIPOS>MOLECULE
BAN
   56    57     1     0     0
SMALL
No Charge or Current Charge


@<TRIPOS>ATOM
      1 OH1          5.6450     0.1900    -3.7210 oh         1 BAN      -0.424100
      2 N1           4.6230    -0.5720    -3.0330 ns         1 BAN      -0.390400
      3 C1           4.8910    -1.1960    -1.8190 c          1 BAN       0.605100
      4 O1           5.9060    -0.9630    -1.1770 o          1 BAN      -0.532100
      5 CA2          3.8300    -2.1940    -1.3610 c3         1 BAN      -0.218700
      6 CB2          4.4120    -3.6110    -1.1260 c3         1 BAN      -0.010100
      7 CG2          3.3180    -4.6200    -0.8000 ca         1 BAN      -0.102300
      8 CD1          3.0370    -4.9600     0.5380 ca         1 BAN      -0.102000
      9 CD2          2.5590    -5.2020    -1.8350 ca         1 BAN      -0.102000
     10 CE1          2.0100    -5.8710     0.8380 ca         1 BAN      -0.106000
     11 CE2          1.5330    -6.1150    -1.5350 ca         1 BAN      -0.106000
     12 CZ2          1.2580    -6.4490    -0.1980 ca         1 BAN      -0.106000
     13 C2           3.1440    -1.6470    -0.1140 c          1 BAN       0.604100
     14 O2           3.7300    -1.4460     0.9390 o          1 BAN      -0.571100
     15 N3           1.7920    -1.4240    -0.2500 ns         1 BAN      -0.494900
     16 CA3          0.8960    -0.9500     0.8250 c3         1 BAN       0.046700
     17 CB3          1.0500     0.5750     1.0310 c3         1 BAN      -0.105100
     18 C3          -0.5770    -1.3490     0.5160 c          1 BAN       0.585100
     19 O3          -0.9400    -1.7750    -0.5740 o          1 BAN      -0.591100
     20 N4          -1.4620    -1.2030     1.5640 ns         1 BAN      -0.486900
     21 CA4         -2.8990    -1.5640     1.5000 c3         1 BAN       0.027000
     22 C4          -3.1610    -3.0470     1.8650 c          1 BAN       0.591100
     23 O4          -2.2680    -3.8030     2.2360 o          1 BAN      -0.541100
     24 C10         -5.1680    -4.6500     1.9550 ca         1 BAN       0.032000
     25 C5          -6.5720    -4.6470     1.8770 ca         1 BAN      -0.173500
     26 C6          -7.3110    -5.8270     2.0670 ca         1 BAN      -0.011500
     27 C7          -6.6480    -7.0450     2.3370 ca         1 BAN      -0.218200
     28 C8          -5.2370    -7.0540     2.4100 ca         1 BAN      -0.011500
     29 C9          -4.5060    -5.8680     2.2190 ca         1 BAN      -0.173500
     30 N5          -7.4280    -8.3070     2.5400 no         1 BAN       0.700200
     31 O5          -8.6620    -8.2500     2.4660 o          1 BAN      -0.404500
     32 O6          -6.8030    -9.3500     2.7740 o          1 BAN      -0.404500
     33 N2          -4.4950    -3.4150     1.7470 ns         1 BAN      -0.143000
     34 H1           5.1940     1.0390    -3.9450 ho         1 BAN       0.448000
     35 H2           3.8520    -0.9070    -3.6090 hn         1 BAN       0.328500
     36 H5           3.0760    -2.2710    -2.1530 hc         1 BAN       0.060700
     37 H6           5.1570    -3.5770    -0.3200 hc         1 BAN       0.075700
     38 H7           4.9560    -3.9320    -2.0240 hc         1 BAN       0.075700
     39 H9           3.6100    -4.5130     1.3480 ha         1 BAN       0.118500
     40 H11          2.7620    -4.9450    -2.8730 ha         1 BAN       0.118500
     41 H13          1.7960    -6.1280     1.8730 ha         1 BAN       0.111000
     42 H15          0.9500    -6.5600    -2.3380 ha         1 BAN       0.111000
     43 H17          0.4620    -7.1540     0.0340 ha         1 BAN       0.111000
     44 H21          1.3740    -1.6650    -1.1430 hn         1 BAN       0.324500
     45 H22          1.1730    -1.4620     1.7570 h1         1 BAN       0.076700
     46 H23          0.7670     1.1190     0.1220 hc         1 BAN       0.052367
     47 H24          0.4150     0.9260     1.8530 hc         1 BAN       0.052367
     48 H25          2.0880     0.8330     1.2760 hc         1 BAN       0.052367
     49 H28         -1.0830    -0.8620     2.4420 hn         1 BAN       0.335500
     50 H29         -3.4630    -0.9360     2.2020 h1         1 BAN       0.069200
     51 H39         -3.2880    -1.3810     0.4900 h1         1 BAN       0.069200
     52 H33         -7.1020    -3.7190     1.6700 ha         1 BAN       0.142000
     53 H34         -8.3980    -5.7850     2.0020 ha         1 BAN       0.152500
     54 H36         -4.6950    -7.9770     2.6120 ha         1 BAN       0.152500
     55 H37         -3.4240    -5.9230     2.2740 ha         1 BAN       0.142000
     56 H8          -5.1060    -2.6650     1.4510 hn         1 BAN       0.157000
@<TRIPOS>BOND
     1     1     2 1   
     2     1    34 1   
     3     2     3 1   
     4     2    35 1   
     5     3     4 2   
     6     3     5 1   
     7     5     6 1   
     8     5    13 1   
     9     5    36 1   
    10     6     7 1   
    11     6    37 1   
    12     6    38 1   
    13     7     8 ar  
    14     7     9 ar  
    15     8    10 ar  
    16     8    39 1   
    17     9    11 ar  
    18     9    40 1   
    19    10    12 ar  
    20    10    41 1   
    21    11    12 ar  
    22    11    42 1   
    23    12    43 1   
    24    13    14 2   
    25    13    15 1   
    26    15    16 1   
    27    15    44 1   
    28    16    17 1   
    29    16    18 1   
    30    16    45 1   
    31    17    46 1   
    32    17    47 1   
    33    17    48 1   
    34    18    19 2   
    35    18    20 1   
    36    20    21 1   
    37    20    49 1   
    38    21    22 1   
    39    21    50 1   
    40    21    51 1   
    41    22    23 2   
    42    22    33 1   
    43    24    25 ar  
    44    24    29 ar  
    45    24    33 1   
    46    25    26 ar  
    47    25    52 1   
    48    26    27 ar  
    49    26    53 1   
    50    27    28 ar  
    51    27    30 1   
    52    28    29 ar  
    53    28    54 1   
    54    29    55 1   
    55    30    31 1   
    56    30    32 1   
    57    33    56 1   
@<TRIPOS>SUBSTRUCTURE
     1 BAN         1 TEMP              0 ****  ****    0 ROOT
