@<TRIPOS>MOLECULE
BAO
   40    43     1     0     0
SMALL
No Charge or Current Charge


@<TRIPOS>ATOM
      1 C1           0.5620     0.0860     5.6510 ca         1 BAO      -0.142900
      2 C2           1.7920     0.2530     4.9500 ca         1 BAO      -0.121500
      3 C3           1.8300     0.2550     3.5380 ca         1 BAO      -0.040000
      4 C4           0.6290     0.1030     2.8340 ca         1 BAO       0.060900
      5 C5          -0.5470    -0.0400     3.4990 ca         1 BAO      -0.075200
      6 C6          -0.6340    -0.0470     4.8970 ca         1 BAO      -0.082500
      7 C7           0.5200     0.1230     7.1490 ce         1 BAO       0.659800
      8 N1          -0.5200     0.4090     7.8180 n2         1 BAO      -0.836100
      9 N2           1.6020    -0.3050     7.8270 nv         1 BAO      -1.053700
     10 N3           0.4430     0.0790     1.4650 nc         1 BAO      -0.489100
     11 N4          -1.5490    -0.1630     2.5790 na         1 BAO      -0.280100
     12 C8          -0.8970    -0.0860     1.3280 cd         1 BAO       0.337300
     13 C10          0.5430     0.0700    -5.6200 ca         1 BAO      -0.142900
     14 C11          1.7750     0.2420    -4.9240 ca         1 BAO      -0.121500
     15 C12          1.8170     0.2480    -3.5120 ca         1 BAO      -0.040000
     16 C13          0.6200     0.0940    -2.8020 ca         1 BAO       0.060900
     17 C14         -0.5580    -0.0510    -3.4630 ca         1 BAO      -0.075200
     18 C15         -0.6490    -0.0620    -4.8610 ca         1 BAO      -0.082500
     19 C16          0.4800     0.0930    -7.1210 ce         1 BAO       0.659800
     20 N5          -0.5950     0.2810    -7.7710 n2         1 BAO      -0.836100
     21 N6           1.6020    -0.2040    -7.8100 nv         1 BAO      -1.053700
     22 N7           0.4380     0.0750    -1.4330 nc         1 BAO      -0.489100
     23 N8          -1.5580    -0.1710    -2.5390 na         1 BAO      -0.280100
     24 C17         -0.9010    -0.0900    -1.2910 cd         1 BAO       0.337300
     25 C9          -1.6510    -0.1800     0.0200 c          1 BAO       0.481500
     26 O9          -2.8770    -0.3300     0.0220 o          1 BAO      -0.532100
     27 H2           2.7230     0.3920     5.4950 ha         1 BAO       0.126000
     28 H3           2.7700     0.3800     3.0060 ha         1 BAO       0.136500
     29 H6          -1.6000    -0.1700     5.3810 ha         1 BAO       0.135500
     30 HN1         -1.2220     0.7820     7.1670 hn         1 BAO       0.380400
     31 HN21         1.4040    -0.5600     8.7870 hn         1 BAO       0.466500
     32 HN22         2.2180    -0.9290     7.3200 hn         1 BAO       0.466500
     33 HN4         -2.5430    -0.2850     2.7340 hn         1 BAO       0.376000
     34 H4           2.7060     0.3850    -5.4680 ha         1 BAO       0.126000
     35 H5           2.7590     0.3770    -2.9840 ha         1 BAO       0.136500
     36 H7          -1.6160    -0.1780    -5.3460 ha         1 BAO       0.135500
     37 H1          -0.3430     0.4770    -8.7460 hn         1 BAO       0.380400
     38 H2'1         1.4590    -0.6100    -8.7270 hn         1 BAO       0.466500
     39 H2'2         2.3410    -0.6320    -7.2650 hn         1 BAO       0.466500
     40 H8          -2.5520    -0.2930    -2.6910 hn         1 BAO       0.376000
@<TRIPOS>BOND
     1     1     2 ar  
     2     1     6 ar  
     3     1     7 1   
     4     2     3 ar  
     5     2    27 1   
     6     3     4 ar  
     7     3    28 1   
     8     4     5 ar  
     9     4    10 1   
    10     5     6 ar  
    11     5    11 1   
    12     6    29 1   
    13     7     8 2   
    14     7     9 1   
    15     8    30 1   
    16     9    31 1   
    17     9    32 1   
    18    10    12 2   
    19    11    12 1   
    20    11    33 1   
    21    12    25 1   
    22    13    14 ar  
    23    13    18 ar  
    24    13    19 1   
    25    14    15 ar  
    26    14    34 1   
    27    15    16 ar  
    28    15    35 1   
    29    16    17 ar  
    30    16    22 1   
    31    17    18 ar  
    32    17    23 1   
    33    18    36 1   
    34    19    20 2   
    35    19    21 1   
    36    20    37 1   
    37    21    38 1   
    38    21    39 1   
    39    22    24 2   
    40    23    24 1   
    41    23    40 1   
    42    24    25 1   
    43    25    26 2   
@<TRIPOS>SUBSTRUCTURE
     1 BAO         1 TEMP              0 ****  ****    0 ROOT
