@<TRIPOS>MOLECULE
BAO
   40    43     1     0     0
SMALL
bcc


@<TRIPOS>ATOM
      1 C1           0.5070     0.0770     5.5890 ca         1 BAO      -0.142900
      2 C2           1.7730    -0.0160     4.9630 ca         1 BAO      -0.139500
      3 C3           1.9030    -0.0970     3.5960 ca         1 BAO      -0.058000
      4 C4           0.7350    -0.0950     2.8270 ca         1 BAO       0.060900
      5 C5          -0.5190    -0.0110     3.4610 ca         1 BAO      -0.075200
      6 C6          -0.6570     0.0820     4.8410 ca         1 BAO      -0.100500
      7 C7           0.4110     0.1890     7.0730 ce         1 BAO       0.659800
      8 N1          -0.4350     0.9210     7.6900 n2         1 BAO      -0.836100
      9 N2           1.3400    -0.5310     7.7630 nv         1 BAO      -0.943300
     10 N3           0.5740    -0.1690     1.4750 nc         1 BAO      -0.489100
     11 N4          -1.4240    -0.0480     2.4480 na         1 BAO      -0.229800
     12 C8          -0.7200    -0.1360     1.2880 cd         1 BAO       0.337300
     13 C10          0.4730     0.1150    -5.5710 ca         1 BAO      -0.142900
     14 C11          1.6570     0.5710    -4.9460 ca         1 BAO      -0.139500
     15 C12          1.7630     0.6830    -3.5780 ca         1 BAO      -0.058000
     16 C13          0.6540     0.3250    -2.8060 ca         1 BAO       0.060900
     17 C14         -0.5210    -0.1230    -3.4390 ca         1 BAO      -0.075200
     18 C15         -0.6350    -0.2330    -4.8200 ca         1 BAO      -0.100500
     19 C16          0.3850     0.0160    -7.0560 ce         1 BAO       0.659800
     20 N5          -0.7590     0.1440    -7.6100 n2         1 BAO      -0.836100
     21 N6           1.5770    -0.1580    -7.6990 nv         1 BAO      -0.943300
     22 N7           0.4870     0.3300    -1.4520 nc         1 BAO      -0.489100
     23 N8          -1.3870    -0.3800    -2.4220 na         1 BAO      -0.229800
     24 C17         -0.7350    -0.0950    -1.2630 cd         1 BAO       0.337300
     25 C9          -1.4520    -0.2330     0.0140 c          1 BAO       0.481500
     26 O9          -2.6510    -0.4250     0.0190 o          1 BAO      -0.532100
     27 H2           2.6630    -0.0020     5.5770 ha         1 BAO       0.144000
     28 H3           2.8770    -0.1560     3.1290 ha         1 BAO       0.154500
     29 H6          -1.6320     0.1320     5.3080 ha         1 BAO       0.153500
     30 HN1         -0.9770     1.4730     7.0350 hn         1 BAO       0.380400
     31 HN21         1.2150    -0.5780     8.7610 hn         1 BAO       0.411300
     32 HN22         1.6930    -1.3770     7.3490 hn         1 BAO       0.411300
     33 HN4         -2.4290    -0.0130     2.5310 hn         1 BAO       0.325700
     34 H4           2.5020     0.8630    -5.5550 ha         1 BAO       0.144000
     35 H5           2.6720     1.0430    -3.1150 ha         1 BAO       0.154500
     36 H7          -1.5430    -0.5800    -5.2940 ha         1 BAO       0.153500
     37 H1          -0.6940     0.0210    -8.6170 hn         1 BAO       0.380400
     38 H2'1         1.5440    -0.3630    -8.6850 hn         1 BAO       0.411300
     39 H2'2         2.3200    -0.6320    -7.2130 hn         1 BAO       0.411300
     40 H8          -2.3340    -0.7170    -2.5030 hn         1 BAO       0.325700
@<TRIPOS>BOND
     1     1     2 ar  
     2     1     6 ar  
     3     1     7 1   
     4     2     3 ar  
     5     2    27 1   
     6     3     4 ar  
     7     3    28 1   
     8     4     5 ar  
     9     4    10 1   
    10     5     6 ar  
    11     5    11 1   
    12     6    29 1   
    13     7     8 2   
    14     7     9 1   
    15     8    30 1   
    16     9    31 1   
    17     9    32 1   
    18    10    12 2   
    19    11    12 1   
    20    11    33 1   
    21    12    25 1   
    22    13    14 ar  
    23    13    18 ar  
    24    13    19 1   
    25    14    15 ar  
    26    14    34 1   
    27    15    16 ar  
    28    15    35 1   
    29    16    17 ar  
    30    16    22 1   
    31    17    18 ar  
    32    17    23 1   
    33    18    36 1   
    34    19    20 2   
    35    19    21 1   
    36    20    37 1   
    37    21    38 1   
    38    21    39 1   
    39    22    24 2   
    40    23    24 1   
    41    23    40 1   
    42    24    25 1   
    43    25    26 2   
@<TRIPOS>SUBSTRUCTURE
     1 BAO         1 TEMP              0 ****  ****    0 ROOT
