@<TRIPOS>MOLECULE
BAP
   39    43     1     0     0
SMALL
No Charge or Current Charge


@<TRIPOS>ATOM
      1 C1          -0.8180     0.0790    -4.8480 ca         1 BAP      -0.094000
      2 C2           0.4910    -0.0520    -5.3410 ca         1 BAP      -0.107000
      3 C3           1.5700    -0.1700    -4.4490 ca         1 BAP      -0.094000
      4 C3A          1.3420    -0.1550    -3.0600 ca         1 BAP      -0.034000
      5 C4           2.4160    -0.2740    -2.1660 ca         1 BAP      -0.094000
      6 C5           2.1920    -0.2560    -0.7800 ca         1 BAP      -0.101000
      7 C5A          0.8830    -0.1160    -0.2550 ca         1 BAP      -0.029000
      8 C6           0.6370    -0.0850     1.1490 ca         1 BAP      -0.045300
      9 C7          -0.7040    -0.0060     1.6240 ca         1 BAP      -0.082300
     10 C8          -1.7600     0.1170     0.6980 ca         1 BAP      -0.078000
     11 C8A         -1.5160     0.1170    -0.6820 ca         1 BAP      -0.034000
     12 C9          -2.5920     0.2340    -1.5830 ca         1 BAP      -0.093000
     13 C10         -2.3610     0.2240    -2.9670 ca         1 BAP      -0.096000
     14 C1A         -1.0520     0.0940    -3.4610 ca         1 BAP      -0.032000
     15 C3B          0.0310    -0.0230    -2.5600 ca         1 BAP      -0.014000
     16 C5B         -0.1980    -0.0090    -1.1640 ca         1 BAP      -0.011000
     17 C11         -1.0270    -0.0030     3.1360 c6         1 BAP       0.180600
     18 O1          -2.2130    -0.7720     3.4310 oh         1 BAP      -0.727000
     19 C12          0.1480    -0.5440     4.0010 c6         1 BAP       0.177300
     20 O2          -0.1630    -0.4180     5.4040 oh         1 BAP      -0.648000
     21 C13          1.4690     0.1790     3.6180 c6         1 BAP       0.177300
     22 O3           1.3830     1.6100     3.8000 oh         1 BAP      -0.707000
     23 C14          1.8180    -0.1520     2.1480 c6         1 BAP      -0.074100
     24 H1          -1.6480     0.1690    -5.5460 ha         1 BAP       0.114000
     25 H2           0.6690    -0.0640    -6.4140 ha         1 BAP       0.114000
     26 H3           2.5800    -0.2720    -4.8390 ha         1 BAP       0.114000
     27 H4           3.4310    -0.3830    -2.5430 ha         1 BAP       0.113000
     28 H5           3.0570    -0.3640    -0.1330 ha         1 BAP       0.110000
     29 H8          -2.7850     0.2160     1.0470 ha         1 BAP       0.114000
     30 H9          -3.6100     0.3320    -1.2110 ha         1 BAP       0.114000
     31 H10         -3.2010     0.3140    -3.6530 ha         1 BAP       0.114000
     32 H6          -1.1900     1.0480     3.4220 h1         1 BAP       0.071700
     33 HO1         -2.9780    -0.2760     3.0590 ho         1 BAP       0.507000
     34 H7           0.2750    -1.6100     3.7580 h1         1 BAP       0.049700
     35 HO2         -1.1150    -0.6580     5.4660 ho         1 BAP       0.453000
     36 H11          2.2720    -0.2220     4.2540 h1         1 BAP       0.049700
     37 HO3          2.3040     1.9560     3.7680 ho         1 BAP       0.503000
     38 H4'1         2.6240     0.5230     1.8300 hc         1 BAP       0.057700
     39 H4'2         2.2410    -1.1660     2.1120 hc         1 BAP       0.057700
@<TRIPOS>BOND
     1     1     2 ar  
     2     1    14 ar  
     3     1    24 1   
     4     2     3 ar  
     5     2    25 1   
     6     3     4 ar  
     7     3    26 1   
     8     4     5 ar  
     9     4    15 ar  
    10     5     6 ar  
    11     5    27 1   
    12     6     7 ar  
    13     6    28 1   
    14     7     8 ar  
    15     7    16 ar  
    16     8     9 ar  
    17     8    23 1   
    18     9    10 ar  
    19     9    17 1   
    20    10    11 ar  
    21    10    29 1   
    22    11    12 ar  
    23    11    16 ar  
    24    12    13 ar  
    25    12    30 1   
    26    13    14 ar  
    27    13    31 1   
    28    14    15 ar  
    29    15    16 ar  
    30    17    18 1   
    31    17    19 1   
    32    17    32 1   
    33    18    33 1   
    34    19    20 1   
    35    19    21 1   
    36    19    34 1   
    37    20    35 1   
    38    21    22 1   
    39    21    23 1   
    40    21    36 1   
    41    22    37 1   
    42    23    38 1   
    43    23    39 1   
@<TRIPOS>SUBSTRUCTURE
     1 BAP         1 TEMP              0 ****  ****    0 ROOT
