@<TRIPOS>MOLECULE
BAP
   39    43     1     0     0
SMALL
abcg2


@<TRIPOS>ATOM
      1 C1          -0.7760     0.0870    -4.8310 ca         1 BAP      -0.094000
      2 C2           0.5230    -0.0270    -5.3060 ca         1 BAP      -0.107000
      3 C3           1.5870    -0.1390    -4.4250 ca         1 BAP      -0.094000
      4 C3A          1.3670    -0.1360    -3.0460 ca         1 BAP      -0.034000
      5 C4           2.4350    -0.2550    -2.1030 ca         1 BAP      -0.094000
      6 C5           2.2040    -0.2450    -0.7690 ca         1 BAP      -0.101000
      7 C5A          0.8790    -0.1120    -0.2330 ca         1 BAP      -0.029000
      8 C6           0.6270    -0.0920     1.1530 ca         1 BAP      -0.045300
      9 C7          -0.6890     0.0040     1.6090 ca         1 BAP      -0.082300
     10 C8          -1.7390     0.0950     0.7020 ca         1 BAP      -0.078000
     11 C8A         -1.5200     0.1010    -0.6700 ca         1 BAP      -0.034000
     12 C9          -2.5980     0.2070    -1.6100 ca         1 BAP      -0.093000
     13 C10         -2.3670     0.2060    -2.9420 ca         1 BAP      -0.096000
     14 C1A         -1.0360     0.0930    -3.4610 ca         1 BAP      -0.032000
     15 C3B          0.0460    -0.0170    -2.5520 ca         1 BAP      -0.014000
     16 C5B         -0.1950    -0.0090    -1.1510 ca         1 BAP      -0.011000
     17 C11         -1.0150     0.0430     3.0900 c6         1 BAP       0.180600
     18 O1          -2.1840    -0.7000     3.3800 oh         1 BAP      -0.727000
     19 C12          0.1200    -0.5260     3.9320 c6         1 BAP       0.177300
     20 O2          -0.1190    -0.3520     5.3050 oh         1 BAP      -0.648000
     21 C13          1.4250     0.1460     3.5580 c6         1 BAP       0.177300
     22 O3           1.2690     1.5370     3.7280 oh         1 BAP      -0.707000
     23 C14          1.7730    -0.2240     2.1230 c6         1 BAP      -0.074100
     24 H1          -1.6010     0.1700    -5.5280 ha         1 BAP       0.114000
     25 H2           0.7050    -0.0300    -6.3730 ha         1 BAP       0.114000
     26 H3           2.5980    -0.2300    -4.8030 ha         1 BAP       0.114000
     27 H4           3.4480    -0.3570    -2.4740 ha         1 BAP       0.113000
     28 H5           3.0440    -0.3440    -0.0970 ha         1 BAP       0.110000
     29 H8          -2.7580     0.1680     1.0630 ha         1 BAP       0.114000
     30 H9          -3.6090     0.2920    -1.2310 ha         1 BAP       0.114000
     31 H10         -3.1900     0.2890    -3.6410 ha         1 BAP       0.114000
     32 H6          -1.1620     1.0910     3.3740 h1         1 BAP       0.071700
     33 HO1         -2.9070    -0.0910     3.5500 ho         1 BAP       0.507000
     34 H7           0.2260    -1.5940     3.6840 h1         1 BAP       0.049700
     35 HO2         -0.9730    -0.7510     5.5060 ho         1 BAP       0.453000
     36 H11          2.2230    -0.2380     4.2090 h1         1 BAP       0.049700
     37 HO3          2.0780     1.9680     3.4340 ho         1 BAP       0.503000
     38 H4'1         2.6220     0.3890     1.8060 hc         1 BAP       0.057700
     39 H4'2         2.1410    -1.2550     2.1090 hc         1 BAP       0.057700
@<TRIPOS>BOND
     1     1     2 ar  
     2     1    14 ar  
     3     1    24 1   
     4     2     3 ar  
     5     2    25 1   
     6     3     4 ar  
     7     3    26 1   
     8     4     5 ar  
     9     4    15 ar  
    10     5     6 ar  
    11     5    27 1   
    12     6     7 ar  
    13     6    28 1   
    14     7     8 ar  
    15     7    16 ar  
    16     8     9 ar  
    17     8    23 1   
    18     9    10 ar  
    19     9    17 1   
    20    10    11 ar  
    21    10    29 1   
    22    11    12 ar  
    23    11    16 ar  
    24    12    13 ar  
    25    12    30 1   
    26    13    14 ar  
    27    13    31 1   
    28    14    15 ar  
    29    15    16 ar  
    30    17    18 1   
    31    17    19 1   
    32    17    32 1   
    33    18    33 1   
    34    19    20 1   
    35    19    21 1   
    36    19    34 1   
    37    20    35 1   
    38    21    22 1   
    39    21    23 1   
    40    21    36 1   
    41    22    37 1   
    42    23    38 1   
    43    23    39 1   
@<TRIPOS>SUBSTRUCTURE
     1 BAP         1 TEMP              0 ****  ****    0 ROOT
