@<TRIPOS>MOLECULE
BAQ
   13    13     1     0     0
SMALL
bcc


@<TRIPOS>ATOM
      1 OAA         -2.0370    -0.0650    -0.0680 o          1 BAQ      -0.629500
      2 CAF         -0.8160    -0.0410    -0.0290 c          1 BAQ       0.702500
      3 CAD          0.1080    -1.2280     0.1620 c5         1 BAQ      -0.172400
      4 CAB          1.4860    -0.6910    -0.2160 c5         1 BAQ      -0.091400
      5 CAC          1.3730     0.8140     0.0530 c5         1 BAQ       0.099000
      6 NAE         -0.0430     1.0540    -0.1250 ns         1 BAQ      -0.583900
      7 H1           0.0610    -1.5270     1.2130 hc         1 BAQ       0.075200
      8 H2          -0.2160    -2.0820    -0.4320 hc         1 BAQ       0.075200
      9 H3           2.2990    -1.1470     0.3450 hc         1 BAQ       0.056200
     10 H4           1.6750    -0.8610    -1.2760 hc         1 BAQ       0.056200
     11 H5           1.6920     1.0690     1.0680 h1         1 BAQ       0.043700
     12 H6           1.9650     1.4090    -0.6420 h1         1 BAQ       0.043700
     13 H7          -0.4350     1.9830    -0.1420 hn         1 BAQ       0.325500
@<TRIPOS>BOND
     1     1     2 2   
     2     2     3 1   
     3     2     6 1   
     4     3     4 1   
     5     3     7 1   
     6     3     8 1   
     7     4     5 1   
     8     4     9 1   
     9     4    10 1   
    10     5     6 1   
    11     5    11 1   
    12     5    12 1   
    13     6    13 1   
@<TRIPOS>SUBSTRUCTURE
     1 BAQ         1 TEMP              0 ****  ****    0 ROOT
