@<TRIPOS>MOLECULE
BAQ
   13    13     1     0     0
SMALL
No Charge or Current Charge


@<TRIPOS>ATOM
      1 OAA         -1.9650    -0.0760    -0.4760 o          1 BAQ      -0.554000
      2 CAF         -0.8340    -0.0640    -0.0190 c          1 BAQ       0.560000
      3 CAD          0.1160    -1.2200     0.2570 c5         1 BAQ      -0.172400
      4 CAB          1.4520    -0.6880    -0.3110 c5         1 BAQ      -0.091400
      5 CAC          1.3800     0.8020     0.1380 c5         1 BAQ       0.099000
      6 NAE         -0.0600     1.0640     0.0420 ns         1 BAQ      -0.516900
      7 H1           0.2250    -1.3210     1.3430 hc         1 BAQ       0.075200
      8 H2          -0.2440    -2.1600    -0.1740 hc         1 BAQ       0.075200
      9 H3           2.3320    -1.2100     0.0820 hc         1 BAQ       0.056200
     10 H4           1.4770    -0.7690    -1.4050 hc         1 BAQ       0.056200
     11 H5           1.7350     0.9260     1.1700 h1         1 BAQ       0.043700
     12 H6           1.9760     1.4560    -0.5120 h1         1 BAQ       0.043700
     13 H7          -0.4780     1.9470    -0.2250 hn         1 BAQ       0.325500
@<TRIPOS>BOND
     1     1     2 2   
     2     2     3 1   
     3     2     6 1   
     4     3     4 1   
     5     3     7 1   
     6     3     8 1   
     7     4     5 1   
     8     4     9 1   
     9     4    10 1   
    10     5     6 1   
    11     5    11 1   
    12     5    12 1   
    13     6    13 1   
@<TRIPOS>SUBSTRUCTURE
     1 BAQ         1 TEMP              0 ****  ****    0 ROOT
