@<TRIPOS>MOLECULE
BAS
   25    25     1     0     0
SMALL
No Charge or Current Charge


@<TRIPOS>ATOM
      1 C1          -1.3520     0.8430     2.4700 c          1 BAS       0.597900
      2 O1          -1.6560    -0.2080     3.0210 o          1 BAS      -0.597100
      3 N2          -0.5170     0.9070     1.3750 ns         1 BAS      -0.515900
      4 C3           0.1190    -0.2430     0.7290 c3         1 BAS       0.157000
      5 C31          1.5830    -0.4320     1.2020 c3         1 BAS      -0.089400
      6 C32          1.7320    -0.7720     2.7000 c3         1 BAS      -0.089100
      7 C4           0.0180    -0.1050    -0.7900 ca         1 BAS      -0.095300
      8 C5          -0.7770    -1.0070    -1.5270 ca         1 BAS      -0.096000
      9 C6          -0.8790    -0.8880    -2.9240 ca         1 BAS      -0.109500
     10 C7          -0.1900     0.1340    -3.5970 ca         1 BAS      -0.107000
     11 C8           0.6000     1.0400    -2.8710 ca         1 BAS      -0.109500
     12 C9           0.7040     0.9220    -1.4740 ca         1 BAS      -0.096000
     13 HC11        -1.7130     1.8380     2.7890 h5         1 BAS       0.004200
     14 HN2         -0.3450     1.8280     0.9920 hn         1 BAS       0.312500
     15 HC3         -0.4340    -1.1480     1.0160 h1         1 BAS       0.074700
     16 H311         2.1640     0.4720     0.9850 hc         1 BAS       0.049200
     17 H312         2.0350    -1.2430     0.6180 hc         1 BAS       0.049200
     18 H321         2.7850    -0.9600     2.9440 hc         1 BAS       0.035367
     19 H322         1.3820     0.0550     3.3280 hc         1 BAS       0.035367
     20 H323         1.1570    -1.6700     2.9540 hc         1 BAS       0.035367
     21 HC5         -1.3170    -1.8020    -1.0190 ha         1 BAS       0.109000
     22 HC6         -1.4940    -1.5890    -3.4850 ha         1 BAS       0.111500
     23 HC7         -0.2700     0.2260    -4.6780 ha         1 BAS       0.112000
     24 HC8          1.1330     1.8340    -3.3900 ha         1 BAS       0.111500
     25 HC9          1.3170     1.6340    -0.9250 ha         1 BAS       0.109000
@<TRIPOS>BOND
     1     1     2 2   
     2     1     3 1   
     3     1    13 1   
     4     3     4 1   
     5     3    14 1   
     6     4     5 1   
     7     4     7 1   
     8     4    15 1   
     9     5     6 1   
    10     5    16 1   
    11     5    17 1   
    12     6    18 1   
    13     6    19 1   
    14     6    20 1   
    15     7     8 ar  
    16     7    12 ar  
    17     8     9 ar  
    18     8    21 1   
    19     9    10 ar  
    20     9    22 1   
    21    10    11 ar  
    22    10    23 1   
    23    11    12 ar  
    24    11    24 1   
    25    12    25 1   
@<TRIPOS>SUBSTRUCTURE
     1 BAS         1 TEMP              0 ****  ****    0 ROOT
