@<TRIPOS>MOLECULE
BAS
   25    25     1     0     0
SMALL
bcc


@<TRIPOS>ATOM
      1 C1          -1.4980     1.2670     1.8070 c          1 BAS       0.664900
      2 O1          -2.4660     0.6210     1.4450 o          1 BAS      -0.597100
      3 N2          -0.2230     0.9310     1.5820 ns         1 BAS      -0.582900
      4 C3           0.1680    -0.2540     0.8460 c3         1 BAS       0.157000
      5 C31          1.6260    -0.5980     1.1570 c3         1 BAS      -0.089400
      6 C32          1.8780    -0.9200     2.6230 c3         1 BAS      -0.089100
      7 C4          -0.0380    -0.1020    -0.6460 ca         1 BAS      -0.095300
      8 C5          -0.4990    -1.1800    -1.3940 ca         1 BAS      -0.114000
      9 C6          -0.6330    -1.0840    -2.7730 ca         1 BAS      -0.127500
     10 C7          -0.3080     0.1000    -3.4220 ca         1 BAS      -0.125000
     11 C8           0.1510     1.1830    -2.6810 ca         1 BAS      -0.127500
     12 C9           0.2850     1.0810    -1.3030 ca         1 BAS      -0.114000
     13 HC11        -1.5870     2.2050     2.3740 h5         1 BAS       0.004200
     14 HN2          0.4920     1.5640     1.9040 hn         1 BAS       0.312500
     15 HC3         -0.4540    -1.0850     1.1930 h1         1 BAS       0.074700
     16 H311         2.2690     0.2260     0.8300 hc         1 BAS       0.049200
     17 H312         1.9020    -1.4560     0.5410 hc         1 BAS       0.049200
     18 H321         2.9170    -1.2110     2.7770 hc         1 BAS       0.035367
     19 H322         1.6800    -0.0680     3.2730 hc         1 BAS       0.035367
     20 H323         1.2490    -1.7460     2.9570 hc         1 BAS       0.035367
     21 HC5         -0.7620    -2.1050    -0.8920 ha         1 BAS       0.127000
     22 HC6         -0.9980    -1.9320    -3.3380 ha         1 BAS       0.129500
     23 HC7         -0.4130     0.1800    -4.4960 ha         1 BAS       0.130000
     24 HC8          0.4060     2.1100    -3.1780 ha         1 BAS       0.129500
     25 HC9          0.6400     1.9370    -0.7410 ha         1 BAS       0.127000
@<TRIPOS>BOND
     1     1     2 2   
     2     1     3 1   
     3     1    13 1   
     4     3     4 1   
     5     3    14 1   
     6     4     5 1   
     7     4     7 1   
     8     4    15 1   
     9     5     6 1   
    10     5    16 1   
    11     5    17 1   
    12     6    18 1   
    13     6    19 1   
    14     6    20 1   
    15     7     8 ar  
    16     7    12 ar  
    17     8     9 ar  
    18     8    21 1   
    19     9    10 ar  
    20     9    22 1   
    21    10    11 ar  
    22    10    23 1   
    23    11    12 ar  
    24    11    24 1   
    25    12    25 1   
@<TRIPOS>SUBSTRUCTURE
     1 BAS         1 TEMP              0 ****  ****    0 ROOT
