@<TRIPOS>MOLECULE
BAT
   63    64     1     0     0
SMALL
abcg2


@<TRIPOS>ATOM
      1 C1           1.6900    -0.4250    -0.0490 c3         1 BAT      -0.128700
      2 C2           3.0030    -1.1890     0.0010 c          1 BAT       0.613100
      3 C3           0.7780    -1.0970    -1.0710 c3         1 BAT       0.038600
      4 C4           0.7430     0.3160    -3.4470 cc         1 BAT      -0.254000
      5 C5           0.3920     1.5060    -2.8770 cd         1 BAT      -0.119000
      6 C6          -0.2190     2.3930    -3.8060 cd         1 BAT      -0.128000
      7 C7          -0.3090     1.8740    -5.0590 cc         1 BAT      -0.243000
      8 C8           1.0200    -0.3930     1.3390 c3         1 BAT      -0.133700
      9 C9           1.8960     0.2460     2.4370 c3         1 BAT      -0.067400
     10 C10          2.7740    -0.7160     3.2450 c3         1 BAT      -0.068700
     11 C11          3.7040     0.0920     4.1460 c3         1 BAT      -0.087100
     12 C12          1.9300    -1.6800     4.0720 c3         1 BAT      -0.087100
     13 C13         -0.2540     0.4270     1.2220 c          1 BAT       0.597100
     14 C14         -2.6940     0.3820     1.5220 c3         1 BAT       0.020700
     15 C15         -3.2860     0.8560     2.8490 c          1 BAT       0.587100
     16 C16         -2.9280     1.2000     5.2330 c3         1 BAT       0.095300
     17 C17         -3.6500    -0.5950     0.8240 c3         1 BAT      -0.039100
     18 C18         -3.1330    -1.0160    -0.5240 ca         1 BAT      -0.093300
     19 C19         -2.7000    -2.3190    -0.7510 ca         1 BAT      -0.111000
     20 C20         -2.2030    -2.6980    -1.9920 ca         1 BAT      -0.110000
     21 C21         -2.1200    -1.7720    -3.0220 ca         1 BAT      -0.104000
     22 C22         -2.5430    -0.4670    -2.8050 ca         1 BAT      -0.110000
     23 C23         -3.0490    -0.0960    -1.5680 ca         1 BAT      -0.111000
     24 N1           4.0860    -0.4050    -0.1070 ns         1 BAT      -0.382400
     25 N2          -1.3770    -0.1950     1.6390 ns         1 BAT      -0.507900
     26 O1           3.0510    -2.4020     0.1090 o          1 BAT      -0.578100
     27 O2           5.3300    -0.9220     0.0730 oh         1 BAT      -0.420100
     28 O3          -0.2400     1.5780     0.8180 o          1 BAT      -0.597100
     29 O4          -4.4220     1.3110     2.8850 o          1 BAT      -0.605100
     30 S1           1.4780    -1.1080    -2.7480 ss         1 BAT      -0.117000
     31 S2           0.3200     0.2780    -5.1200 ss         1 BAT       0.221000
     32 H1           1.8790     0.6100    -0.3480 hc         1 BAT       0.079700
     33 H31          0.6120    -2.1410    -0.8040 h1         1 BAT       0.093700
     34 H32         -0.1990    -0.6180    -1.1340 h1         1 BAT       0.093700
     35 H5           0.5390     1.7460    -1.8340 ha         1 BAT       0.147000
     36 H6          -0.5630     3.3840    -3.5460 ha         1 BAT       0.137000
     37 H7          -0.6980     2.3400    -5.9510 h4         1 BAT       0.151000
     38 H8           0.7670    -1.4210     1.6190 hc         1 BAT       0.073700
     39 H91          2.5130     1.0290     1.9860 hc         1 BAT       0.048700
     40 H92          1.2540     0.7670     3.1560 hc         1 BAT       0.048700
     41 H10          3.3980    -1.3060     2.5690 hc         1 BAT       0.068700
     42 H111         4.3410    -0.5630     4.7420 hc         1 BAT       0.033367
     43 H112         4.3530     0.7470     3.5630 hc         1 BAT       0.033367
     44 H113         3.1330     0.7180     4.8370 hc         1 BAT       0.033367
     45 H121         1.2780    -1.1340     4.7600 hc         1 BAT       0.033367
     46 H122         1.2990    -2.3160     3.4500 hc         1 BAT       0.033367
     47 H123         2.5620    -2.3390     4.6670 hc         1 BAT       0.033367
     48 H14         -2.6020     1.2780     0.9040 h1         1 BAT       0.107700
     49 H161        -2.1010     1.0710     5.9250 h1         1 BAT       0.041700
     50 H162        -3.2130     2.2520     5.2290 h1         1 BAT       0.041700
     51 H163        -3.7750     0.6170     5.5960 h1         1 BAT       0.041700
     52 H171        -3.8030    -1.4720     1.4590 hc         1 BAT       0.068700
     53 H172        -4.6200    -0.1060     0.7240 hc         1 BAT       0.068700
     54 H19         -2.7500    -3.0470     0.0500 ha         1 BAT       0.112500
     55 H20         -1.8720    -3.7160    -2.1500 ha         1 BAT       0.118000
     56 H21         -1.7210    -2.0620    -3.9850 ha         1 BAT       0.121000
     57 H22         -2.4740     0.2670    -3.5980 ha         1 BAT       0.118000
     58 H23         -3.3780     0.9260    -1.4130 ha         1 BAT       0.112500
     59 HN1          4.0360     0.6030    -0.1340 hn         1 BAT       0.342500
     60 HN2         -1.3170    -1.1750     1.8680 hn         1 BAT       0.316500
     61 HN3         -1.5860     0.3590     3.8250 hn         1 BAT       0.321500
     62 HO2          5.6650    -1.1390    -0.8070 ho         1 BAT       0.446000
     63 N3          -2.5020     0.7640     3.9240 ns         1 BAT      -0.497900
@<TRIPOS>BOND
     1     1     2 1   
     2     1     3 1   
     3     1     8 1   
     4     1    32 1   
     5     2    24 1   
     6     2    26 2   
     7     3    30 1   
     8     3    33 1   
     9     3    34 1   
    10     4     5 2   
    11     4    30 1   
    12     4    31 1   
    13     5     6 1   
    14     5    35 1   
    15     6     7 2   
    16     6    36 1   
    17     7    31 1   
    18     7    37 1   
    19     8     9 1   
    20     8    13 1   
    21     8    38 1   
    22     9    10 1   
    23     9    39 1   
    24     9    40 1   
    25    10    11 1   
    26    10    12 1   
    27    10    41 1   
    28    11    42 1   
    29    11    43 1   
    30    11    44 1   
    31    12    45 1   
    32    12    46 1   
    33    12    47 1   
    34    13    25 1   
    35    13    28 2   
    36    14    15 1   
    37    14    17 1   
    38    14    25 1   
    39    14    48 1   
    40    15    29 2   
    41    15    63 1   
    42    16    49 1   
    43    16    50 1   
    44    16    51 1   
    45    16    63 1   
    46    17    18 1   
    47    17    52 1   
    48    17    53 1   
    49    18    19 ar  
    50    18    23 ar  
    51    19    20 ar  
    52    19    54 1   
    53    20    21 ar  
    54    20    55 1   
    55    21    22 ar  
    56    21    56 1   
    57    22    23 ar  
    58    22    57 1   
    59    23    58 1   
    60    24    27 1   
    61    24    59 1   
    62    25    60 1   
    63    27    62 1   
    64    61    63 1   
@<TRIPOS>SUBSTRUCTURE
     1 BAT         1 TEMP              0 ****  ****    0 ROOT
