@<TRIPOS>MOLECULE
BAT
   63    64     1     0     0
SMALL
No Charge or Current Charge


@<TRIPOS>ATOM
      1 C1           1.4690    -0.6000    -0.0500 c3         1 BAT      -0.128700
      2 C2           2.7520    -1.4520     0.0180 c          1 BAT       0.613100
      3 C3           0.4450    -1.3130    -0.9770 c3         1 BAT       0.038600
      4 C4           1.0990     0.0110    -3.4660 cc         1 BAT      -0.254000
      5 C5           0.5040     1.1120    -2.9030 cd         1 BAT      -0.119000
      6 C6           0.6170     2.2550    -3.7420 cd         1 BAT      -0.128000
      7 C7           1.2850     2.0180    -4.9210 cc         1 BAT      -0.243000
      8 C8           0.8720    -0.2710     1.3670 c3         1 BAT      -0.133700
      9 C9           1.8170     0.5600     2.3000 c3         1 BAT      -0.067400
     10 C10          2.9590    -0.1870     3.0530 c3         1 BAT      -0.068700
     11 C11          3.8300     0.8170     3.8410 c3         1 BAT      -0.087100
     12 C12          2.4400    -1.3030     3.9930 c3         1 BAT      -0.087100
     13 C13         -0.4750     0.4740     1.2420 c          1 BAT       0.597100
     14 C14         -2.9700     0.3020     1.6900 c3         1 BAT       0.020700
     15 C15         -3.5540     0.6150     3.1020 c          1 BAT       0.587100
     16 C16         -3.0650     0.6720     5.5710 c3         1 BAT       0.095300
     17 C17         -3.8630    -0.6880     0.9010 c3         1 BAT      -0.039100
     18 C18         -3.3460    -0.9910    -0.5040 ca         1 BAT      -0.093300
     19 C19         -3.0170    -2.3110    -0.8740 ca         1 BAT      -0.111000
     20 C20         -2.5580    -2.5910    -2.1730 ca         1 BAT      -0.110000
     21 C21         -2.4240    -1.5550    -3.1110 ca         1 BAT      -0.104000
     22 C22         -2.7510    -0.2370    -2.7500 ca         1 BAT      -0.110000
     23 C23         -3.2120     0.0430    -1.4520 ca         1 BAT      -0.111000
     24 N1           3.8960    -0.8470    -0.4920 ns         1 BAT      -0.382400
     25 N2          -1.5680    -0.1940     1.7550 ns         1 BAT      -0.507900
     26 O1           2.7620    -2.5870     0.4810 o          1 BAT      -0.578100
     27 O2           5.2090    -1.4100    -0.2530 oh         1 BAT      -0.420100
     28 O3          -0.5700     1.5840     0.7390 o          1 BAT      -0.597100
     29 O4          -4.7100     0.9830     3.2670 o          1 BAT      -0.605100
     30 S1           1.1250    -1.5750    -2.6820 ss         1 BAT      -0.117000
     31 S2           1.8020     0.3360    -5.0430 ss         1 BAT       0.221000
     32 H1           1.7310     0.3560    -0.5170 hc         1 BAT       0.079700
     33 H31          0.2020    -2.2980    -0.5560 h1         1 BAT       0.093700
     34 H32         -0.4940    -0.7550    -1.0530 h1         1 BAT       0.093700
     35 H5          -0.0070     1.1430    -1.9480 ha         1 BAT       0.147000
     36 H6           0.2100     3.2270    -3.4760 ha         1 BAT       0.137000
     37 H7           1.5090     2.7020    -5.7290 h4         1 BAT       0.151000
     38 H8           0.6540    -1.2260     1.8570 hc         1 BAT       0.073700
     39 H91          2.2500     1.3790     1.7130 hc         1 BAT       0.048700
     40 H92          1.1970     1.0460     3.0650 hc         1 BAT       0.048700
     41 H10          3.6250    -0.6560     2.3230 hc         1 BAT       0.068700
     42 H111         4.6690     0.3060     4.3290 hc         1 BAT       0.033367
     43 H112         4.2470     1.5800     3.1720 hc         1 BAT       0.033367
     44 H113         3.2410     1.3250     4.6150 hc         1 BAT       0.033367
     45 H121         1.7020    -0.9070     4.7010 hc         1 BAT       0.033367
     46 H122         1.9760    -2.1190     3.4280 hc         1 BAT       0.033367
     47 H123         3.2660    -1.7370     4.5690 hc         1 BAT       0.033367
     48 H14         -2.9790     1.2630     1.1620 h1         1 BAT       0.107700
     49 H161        -2.2020     0.4590     6.2150 h1         1 BAT       0.041700
     50 H162        -3.3680     1.7180     5.7060 h1         1 BAT       0.041700
     51 H163        -3.8960     0.0120     5.8510 h1         1 BAT       0.041700
     52 H171        -3.9590    -1.6140     1.4810 hc         1 BAT       0.068700
     53 H172        -4.8760    -0.2730     0.8270 hc         1 BAT       0.068700
     54 H19         -3.1180    -3.1230    -0.1570 ha         1 BAT       0.112500
     55 H20         -2.3040    -3.6120    -2.4510 ha         1 BAT       0.118000
     56 H21         -2.0630    -1.7700    -4.1150 ha         1 BAT       0.121000
     57 H22         -2.6440     0.5670    -3.4750 ha         1 BAT       0.118000
     58 H23         -3.4670     1.0660    -1.1860 ha         1 BAT       0.112500
     59 HN1          3.8690     0.1400    -0.7440 hn         1 BAT       0.342500
     60 HN2         -1.4030    -1.1300     2.1080 hn         1 BAT       0.316500
     61 HN3         -1.7540     0.1530     3.9550 hn         1 BAT       0.321500
     62 HO2          5.6160    -1.4420    -1.1500 ho         1 BAT       0.446000
     63 N3          -2.7010     0.4400     4.1720 ns         1 BAT      -0.497900
@<TRIPOS>BOND
     1     1     2 1   
     2     1     3 1   
     3     1     8 1   
     4     1    32 1   
     5     2    24 1   
     6     2    26 2   
     7     3    30 1   
     8     3    33 1   
     9     3    34 1   
    10     4     5 2   
    11     4    30 1   
    12     4    31 1   
    13     5     6 1   
    14     5    35 1   
    15     6     7 2   
    16     6    36 1   
    17     7    31 1   
    18     7    37 1   
    19     8     9 1   
    20     8    13 1   
    21     8    38 1   
    22     9    10 1   
    23     9    39 1   
    24     9    40 1   
    25    10    11 1   
    26    10    12 1   
    27    10    41 1   
    28    11    42 1   
    29    11    43 1   
    30    11    44 1   
    31    12    45 1   
    32    12    46 1   
    33    12    47 1   
    34    13    25 1   
    35    13    28 2   
    36    14    15 1   
    37    14    17 1   
    38    14    25 1   
    39    14    48 1   
    40    15    29 2   
    41    15    63 1   
    42    16    49 1   
    43    16    50 1   
    44    16    51 1   
    45    16    63 1   
    46    17    18 1   
    47    17    52 1   
    48    17    53 1   
    49    18    19 ar  
    50    18    23 ar  
    51    19    20 ar  
    52    19    54 1   
    53    20    21 ar  
    54    20    55 1   
    55    21    22 ar  
    56    21    56 1   
    57    22    23 ar  
    58    22    57 1   
    59    23    58 1   
    60    24    27 1   
    61    24    59 1   
    62    25    60 1   
    63    27    62 1   
    64    61    63 1   
@<TRIPOS>SUBSTRUCTURE
     1 BAT         1 TEMP              0 ****  ****    0 ROOT
