@<TRIPOS>MOLECULE
BAU
   36    37     1     0     0
SMALL
No Charge or Current Charge


@<TRIPOS>ATOM
      1 OAC          2.9360    -2.8220     1.6900 oh         1 BAU      -0.703000
      2 CAJ          2.9000    -3.1250     0.2820 c3         1 BAU       0.166600
      3 CAK          2.3450    -1.9360    -0.5440 c3         1 BAU       0.146600
      4 OAO          3.2820    -0.8390    -0.4830 os         1 BAU      -0.424000
      5 CAM          2.9370     0.3210    -1.2660 c3         1 BAU       0.333000
      6 NAT          1.7350     0.9720    -0.7050 n          1 BAU      -0.349000
      7 CAS          1.9010     1.8110     0.4100 c          1 BAU       0.620000
      8 OAB          2.9820     2.0490     0.9220 o          1 BAU      -0.536000
      9 NAN          0.7650     2.3700     0.9030 ns         1 BAU      -0.469500
     10 CAR         -0.5110     2.2310     0.4570 c          1 BAU       0.592200
     11 OAA         -1.4370     2.7980     1.0140 o          1 BAU      -0.523000
     12 CAI          0.4790     0.7620    -1.2780 cc         1 BAU      -0.010400
     13 CAQ         -0.6400     1.3550    -0.7360 cd         1 BAU      -0.259400
     14 CAL         -2.0340     1.1400    -1.2840 c3         1 BAU       0.043100
     15 CG          -2.7520    -0.0250    -0.6150 ca         1 BAU      -0.080300
     16 CD2         -3.6890     0.2060     0.4100 ca         1 BAU      -0.096500
     17 CE2         -4.3430    -0.8720     1.0310 ca         1 BAU      -0.110000
     18 CZ          -4.0630    -2.1900     0.6310 ca         1 BAU      -0.108000
     19 CE1         -3.1270    -2.4270    -0.3900 ca         1 BAU      -0.110000
     20 CD1         -2.4730    -1.3490    -1.0110 ca         1 BAU      -0.096500
     21 HAC          3.3560    -3.5930     2.1380 ho         1 BAU       0.504000
     22 HAJ1         3.9060    -3.3750    -0.0840 h1         1 BAU       0.026200
     23 HAJ2         2.2600    -4.0000     0.1050 h1         1 BAU       0.026200
     24 HAK1         2.2060    -2.2620    -1.5840 h1         1 BAU       0.033700
     25 HAK2         1.3650    -1.6460    -0.1440 h1         1 BAU       0.033700
     26 HAM1         3.7520     1.0550    -1.2580 h2         1 BAU       0.070700
     27 HAM2         2.7350     0.0530    -2.3100 h2         1 BAU       0.070700
     28 HAN          0.8860     2.9660     1.7050 hn         1 BAU       0.344500
     29 HAI          0.4930     0.1020    -2.1410 h4         1 BAU       0.198000
     30 HAL1        -2.6310     2.0560    -1.1920 hc         1 BAU       0.056200
     31 HAL2        -1.9760     0.9550    -2.3640 hc         1 BAU       0.056200
     32 HD2         -3.9100     1.2230     0.7300 ha         1 BAU       0.109500
     33 HE2         -5.0660    -0.6870     1.8220 ha         1 BAU       0.111500
     34 HZ          -4.5680    -3.0240     1.1110 ha         1 BAU       0.112000
     35 HE1         -2.9070    -3.4470    -0.7000 ha         1 BAU       0.111500
     36 HD1         -1.7480    -1.5420    -1.7980 ha         1 BAU       0.109500
@<TRIPOS>BOND
     1     1     2 1   
     2     1    21 1   
     3     2     3 1   
     4     2    22 1   
     5     2    23 1   
     6     3     4 1   
     7     3    24 1   
     8     3    25 1   
     9     4     5 1   
    10     5     6 1   
    11     5    26 1   
    12     5    27 1   
    13     6     7 1   
    14     6    12 1   
    15     7     8 2   
    16     7     9 1   
    17     9    10 1   
    18     9    28 1   
    19    10    11 2   
    20    10    13 1   
    21    12    13 2   
    22    12    29 1   
    23    13    14 1   
    24    14    15 1   
    25    14    30 1   
    26    14    31 1   
    27    15    16 ar  
    28    15    20 ar  
    29    16    17 ar  
    30    16    32 1   
    31    17    18 ar  
    32    17    33 1   
    33    18    19 ar  
    34    18    34 1   
    35    19    20 ar  
    36    19    35 1   
    37    20    36 1   
@<TRIPOS>SUBSTRUCTURE
     1 BAU         1 TEMP              0 ****  ****    0 ROOT
