@<TRIPOS>MOLECULE
BAU
   36    37     1     0     0
SMALL
bcc


@<TRIPOS>ATOM
      1 OAC          3.2210    -2.9150     1.3330 oh         1 BAU      -0.580800
      2 CAJ          3.1560    -3.0970    -0.0620 c3         1 BAU       0.143400
      3 CAK          2.5220    -1.8860    -0.6950 c3         1 BAU       0.123400
      4 OAO          3.3650    -0.7630    -0.5190 os         1 BAU      -0.377600
      5 CAM          2.9500     0.3770    -1.1840 c3         1 BAU       0.309800
      6 NAT          1.7440     0.9650    -0.6120 n          1 BAU      -0.416000
      7 CAS          1.8530     1.6630     0.5710 c          1 BAU       0.829500
      8 OAB          2.9100     1.8560     1.1310 o          1 BAU      -0.611500
      9 NAN          0.6630     2.1330     1.0610 ns         1 BAU      -0.603500
     10 CAR         -0.6030     1.9760     0.5220 c          1 BAU       0.734700
     11 OAA         -1.5740     2.4630     1.0700 o          1 BAU      -0.598500
     12 CAI          0.5270     0.7630    -1.2080 cc         1 BAU       0.039600
     13 CAQ         -0.6370     1.2150    -0.7110 cd         1 BAU      -0.259400
     14 CAL         -1.9580     0.9500    -1.3660 c3         1 BAU       0.043100
     15 CG          -2.7920    -0.0410    -0.5890 ca         1 BAU      -0.080300
     16 CD2         -3.9890     0.3390     0.0090 ca         1 BAU      -0.114500
     17 CE2         -4.7510    -0.5800     0.7200 ca         1 BAU      -0.128000
     18 CZ          -4.3210    -1.8940     0.8460 ca         1 BAU      -0.126000
     19 CE1         -3.1260    -2.2830     0.2520 ca         1 BAU      -0.128000
     20 CD1         -2.3690    -1.3620    -0.4580 ca         1 BAU      -0.114500
     21 HAC          3.6230    -3.6980     1.7190 ho         1 BAU       0.405000
     22 HAJ1         4.1490    -3.2610    -0.5010 h1         1 BAU       0.026200
     23 HAJ2         2.5400    -3.9620    -0.3360 h1         1 BAU       0.026200
     24 HAK1         2.3680    -2.0910    -1.7620 h1         1 BAU       0.033700
     25 HAK2         1.5340    -1.7160    -0.2480 h1         1 BAU       0.033700
     26 HAM1         3.7570     1.1030    -1.1240 h2         1 BAU       0.070700
     27 HAM2         2.7310     0.1860    -2.2400 h2         1 BAU       0.070700
     28 HAN          0.7280     2.6630     1.9220 hn         1 BAU       0.344500
     29 HAI          0.5620     0.2050    -2.1350 h4         1 BAU       0.148000
     30 HAL1        -2.5100     1.8850    -1.4810 hc         1 BAU       0.056200
     31 HAL2        -1.7820     0.5680    -2.3750 hc         1 BAU       0.056200
     32 HD2         -4.3280     1.3640    -0.0800 ha         1 BAU       0.127500
     33 HE2         -5.6800    -0.2670     1.1790 ha         1 BAU       0.129500
     34 HZ          -4.9120    -2.6100     1.4020 ha         1 BAU       0.130000
     35 HE1         -2.7840    -3.3070     0.3410 ha         1 BAU       0.129500
     36 HD1         -1.4380    -1.6770    -0.9160 ha         1 BAU       0.127500
@<TRIPOS>BOND
     1     1     2 1   
     2     1    21 1   
     3     2     3 1   
     4     2    22 1   
     5     2    23 1   
     6     3     4 1   
     7     3    24 1   
     8     3    25 1   
     9     4     5 1   
    10     5     6 1   
    11     5    26 1   
    12     5    27 1   
    13     6     7 1   
    14     6    12 1   
    15     7     8 2   
    16     7     9 1   
    17     9    10 1   
    18     9    28 1   
    19    10    11 2   
    20    10    13 1   
    21    12    13 2   
    22    12    29 1   
    23    13    14 1   
    24    14    15 1   
    25    14    30 1   
    26    14    31 1   
    27    15    16 ar  
    28    15    20 ar  
    29    16    17 ar  
    30    16    32 1   
    31    17    18 ar  
    32    17    33 1   
    33    18    19 ar  
    34    18    34 1   
    35    19    20 ar  
    36    19    35 1   
    37    20    36 1   
@<TRIPOS>SUBSTRUCTURE
     1 BAU         1 TEMP              0 ****  ****    0 ROOT
