@<TRIPOS>MOLECULE
BAV
   84    85     1     0     0
SMALL
No Charge or Current Charge


@<TRIPOS>ATOM
      1 N1          -4.1040    -2.4810     0.9170 n          1 BAV      -0.406800
      2 C2          -2.7680    -3.1750     0.9300 c3         1 BAV       0.029700
      3 C4          -1.6300    -2.5420     0.0640 c          1 BAV       0.592100
      4 N5          -1.6800    -1.1700    -0.0540 ns         1 BAV      -0.475900
      5 C7          -0.7220    -0.3340    -0.7950 c3         1 BAV       0.096700
      6 C9          -1.3390     1.0690    -1.0950 c3         1 BAV      -0.095400
      7 C12         -1.5350     2.1080     0.0610 c3         1 BAV      -0.049700
      8 C14         -2.1550     3.4140    -0.5510 c3         1 BAV      -0.077400
      9 C17         -2.8160     4.4570     0.3980 c3         1 BAV      -0.069400
     10 C20         -4.3730     4.5600     0.3510 c3         1 BAV      -0.069400
     11 C23         -5.2020     3.3350     0.8310 c3         1 BAV      -0.072400
     12 C26         -5.4910     2.2700    -0.2590 c3         1 BAV      -0.076400
     13 C29         -6.0520     0.9380     0.2900 c3         1 BAV      -0.073400
     14 C32         -6.2510    -0.1250    -0.8170 c3         1 BAV      -0.063400
     15 C35         -6.2000    -1.5920    -0.3160 c3         1 BAV      -0.151400
     16 C38         -4.7610    -2.1700    -0.3080 c          1 BAV       0.604100
     17 O39         -4.2120    -2.4050    -1.3760 o          1 BAV      -0.624100
     18 C40         -2.3040     1.5190     1.2730 c3         1 BAV      -0.106100
     19 C44          0.7250    -0.3510    -0.1890 c3         1 BAV       0.156300
     20 O46          0.7330     0.0430     1.2010 oh         1 BAV      -0.646000
     21 C48          1.7410     0.5120    -0.9940 c3         1 BAV       0.124800
     22 N51          3.1140     0.3570    -0.4680 n7         1 BAV      -0.854400
     23 C53          4.1180     1.2650    -1.0460 c3         1 BAV       0.206100
     24 C56          5.4720     1.0530    -0.3840 ca         1 BAV      -0.090300
     25 C57          6.3160     0.0100    -0.8160 ca         1 BAV      -0.082000
     26 C59          7.5750    -0.1960    -0.2150 ca         1 BAV      -0.077300
     27 C60          7.9840     0.6590     0.8290 ca         1 BAV      -0.103000
     28 C62          7.1470     1.6990     1.2650 ca         1 BAV      -0.115000
     29 C64          5.8940     1.8960     0.6610 ca         1 BAV      -0.111000
     30 C66          8.4780    -1.3350    -0.6970 c3         1 BAV      -0.017400
     31 C68          9.8010    -0.7970    -1.2860 c3         1 BAV      -0.083600
     32 C72          8.7300    -2.3700     0.4220 c3         1 BAV      -0.083600
     33 O76         -0.7620    -3.2040    -0.4950 o          1 BAV      -0.618100
     34 C77         -2.9410    -4.6980     0.7110 c3         1 BAV      -0.104100
     35 C81         -4.7690    -2.2850     2.2290 c3         1 BAV       0.084300
     36 H2          -2.3710    -3.0660     1.9470 h1         1 BAV       0.075700
     37 HN5         -2.4520    -0.7180     0.4160 hn         1 BAV       0.341500
     38 H7          -0.6250    -0.8130    -1.7790 h1         1 BAV       0.051700
     39 H9          -0.7340     1.5430    -1.8780 hc         1 BAV       0.048200
     40 H9A         -2.3160     0.8930    -1.5640 hc         1 BAV       0.048200
     41 H12         -0.5430     2.3900     0.4340 hc         1 BAV       0.033700
     42 H14         -1.3350     3.9280    -1.0690 hc         1 BAV       0.039700
     43 H14A        -2.8540     3.1740    -1.3580 hc         1 BAV       0.039700
     44 H17         -2.4720     4.3330     1.4300 hc         1 BAV       0.035700
     45 H17A        -2.4350     5.4430     0.1020 hc         1 BAV       0.035700
     46 H20         -4.6550     5.4120     0.9820 hc         1 BAV       0.037200
     47 H20A        -4.6870     4.8310    -0.6650 hc         1 BAV       0.037200
     48 H23         -4.7130     2.8800     1.6990 hc         1 BAV       0.034200
     49 H23A        -6.1700     3.6990     1.1980 hc         1 BAV       0.034200
     50 H26         -6.1930     2.6870    -0.9920 hc         1 BAV       0.045700
     51 H26A        -4.5760     2.0380    -0.8070 hc         1 BAV       0.045700
     52 H29         -5.3700     0.5480     1.0500 hc         1 BAV       0.035200
     53 H29A        -7.0080     1.1180     0.7970 hc         1 BAV       0.035200
     54 H32         -7.2230     0.0580    -1.2920 hc         1 BAV       0.052200
     55 H32A        -5.5010     0.0060    -1.6080 hc         1 BAV       0.052200
     56 H35         -6.6900    -1.6510     0.6600 hc         1 BAV       0.060200
     57 H35A        -6.7800    -2.1940    -1.0260 hc         1 BAV       0.060200
     58 H40         -1.7340     0.7270     1.7670 hc         1 BAV       0.043367
     59 H40A        -2.4920     2.2650     2.0500 hc         1 BAV       0.043367
     60 H40B        -3.2550     1.0910     0.9570 hc         1 BAV       0.043367
     61 H44          1.0830    -1.3870    -0.2660 h1         1 BAV       0.111700
     62 HO46         0.2800     0.9090     1.2520 ho         1 BAV       0.432000
     63 H48          1.7060     0.2160    -2.0510 h1         1 BAV       0.030700
     64 H48A         1.4360     1.5660    -0.9370 h1         1 BAV       0.030700
     65 HN51         3.0770     0.5310     0.5440 hn         1 BAV       0.421000
     66 H53          4.2140     1.0920    -2.1270 h1         1 BAV       0.033200
     67 H53A         3.8110     2.3110    -0.9090 h1         1 BAV       0.033200
     68 H57          5.9840    -0.6430    -1.6210 ha         1 BAV       0.127000
     69 H60          8.9510     0.5190     1.3070 ha         1 BAV       0.110000
     70 H62          7.4690     2.3530     2.0720 ha         1 BAV       0.110000
     71 H64          5.2520     2.7040     1.0050 ha         1 BAV       0.106000
     72 H66          7.9690    -1.8700    -1.5090 hc         1 BAV       0.052700
     73 H68         10.4000    -0.2900    -0.5200 hc         1 BAV       0.033867
     74 H68A        10.4010    -1.6170    -1.7010 hc         1 BAV       0.033867
     75 H68B         9.5990    -0.0820    -2.0930 hc         1 BAV       0.033867
     76 H72          7.7790    -2.7550     0.8090 hc         1 BAV       0.033867
     77 H72A         9.3090    -3.2190     0.0390 hc         1 BAV       0.033867
     78 H72B         9.2870    -1.9260     1.2550 hc         1 BAV       0.033867
     79 H77         -3.2750    -4.9090    -0.3120 hc         1 BAV       0.053033
     80 H77A        -1.9950    -5.2260     0.8810 hc         1 BAV       0.053033
     81 H77B        -3.6840    -5.1060     1.4070 hc         1 BAV       0.053033
     82 H81         -4.1000    -2.5600     3.0530 h1         1 BAV       0.043700
     83 H81A        -5.0560    -1.2350     2.3550 h1         1 BAV       0.043700
     84 H81B        -5.6640    -2.9170     2.2870 h1         1 BAV       0.043700
@<TRIPOS>BOND
     1     1     2 1   
     2     1    16 1   
     3     1    35 1   
     4     2     3 1   
     5     2    34 1   
     6     2    36 1   
     7     3     4 1   
     8     3    33 2   
     9     4     5 1   
    10     4    37 1   
    11     5     6 1   
    12     5    19 1   
    13     5    38 1   
    14     6     7 1   
    15     6    39 1   
    16     6    40 1   
    17     7     8 1   
    18     7    18 1   
    19     7    41 1   
    20     8     9 1   
    21     8    42 1   
    22     8    43 1   
    23     9    10 1   
    24     9    44 1   
    25     9    45 1   
    26    10    11 1   
    27    10    46 1   
    28    10    47 1   
    29    11    12 1   
    30    11    48 1   
    31    11    49 1   
    32    12    13 1   
    33    12    50 1   
    34    12    51 1   
    35    13    14 1   
    36    13    52 1   
    37    13    53 1   
    38    14    15 1   
    39    14    54 1   
    40    14    55 1   
    41    15    16 1   
    42    15    56 1   
    43    15    57 1   
    44    16    17 2   
    45    18    58 1   
    46    18    59 1   
    47    18    60 1   
    48    19    20 1   
    49    19    21 1   
    50    19    61 1   
    51    20    62 1   
    52    21    22 1   
    53    21    63 1   
    54    21    64 1   
    55    22    23 1   
    56    22    65 1   
    57    23    24 1   
    58    23    66 1   
    59    23    67 1   
    60    24    25 ar  
    61    24    29 ar  
    62    25    26 ar  
    63    25    68 1   
    64    26    27 ar  
    65    26    30 1   
    66    27    28 ar  
    67    27    69 1   
    68    28    29 ar  
    69    28    70 1   
    70    29    71 1   
    71    30    31 1   
    72    30    32 1   
    73    30    72 1   
    74    31    73 1   
    75    31    74 1   
    76    31    75 1   
    77    32    76 1   
    78    32    77 1   
    79    32    78 1   
    80    34    79 1   
    81    34    80 1   
    82    34    81 1   
    83    35    82 1   
    84    35    83 1   
    85    35    84 1   
@<TRIPOS>SUBSTRUCTURE
     1 BAV         1 TEMP              0 ****  ****    0 ROOT
