@<TRIPOS>MOLECULE
BAV
   84    85     1     0     0
SMALL
bcc


@<TRIPOS>ATOM
      1 N1          -3.6550    -2.6270     0.8890 n          1 BAV      -0.473800
      2 C2          -2.6900    -3.2950     0.0020 c3         1 BAV       0.029700
      3 C4          -1.4050    -2.5350    -0.3580 c          1 BAV       0.659100
      4 N5          -1.4930    -1.2080    -0.4780 ns         1 BAV      -0.542900
      5 C7          -0.4820    -0.3620    -1.0930 c3         1 BAV       0.096700
      6 C9          -1.1480     0.9590    -1.5020 c3         1 BAV      -0.095400
      7 C12         -1.5650     2.0010    -0.4470 c3         1 BAV      -0.049700
      8 C14         -2.4410     3.0390    -1.1660 c3         1 BAV      -0.077400
      9 C17         -2.8880     4.2530    -0.3310 c3         1 BAV      -0.069400
     10 C20         -4.4020     4.4410    -0.1660 c3         1 BAV      -0.069400
     11 C23         -5.1030     3.4830     0.8090 c3         1 BAV      -0.072400
     12 C26         -5.6580     2.1850     0.2180 c3         1 BAV      -0.076400
     13 C29         -5.9200     1.1310     1.2900 c3         1 BAV      -0.073400
     14 C32         -6.5430    -0.1780     0.7730 c3         1 BAV      -0.063400
     15 C35         -5.7890    -1.4250     1.2260 c3         1 BAV      -0.151400
     16 C38         -4.5330    -1.7060     0.4230 c          1 BAV       0.671100
     17 O39         -4.3460    -1.1420    -0.6530 o          1 BAV      -0.624100
     18 C40         -2.2870     1.4380     0.7720 c3         1 BAV      -0.106100
     19 C44          0.8200    -0.2580    -0.2790 c3         1 BAV       0.133100
     20 O46          0.6500     0.0610     1.0840 oh         1 BAV      -0.583800
     21 C48          1.8050     0.6850    -0.9580 c3         1 BAV       0.124800
     22 N51          3.1300     0.5550    -0.3850 n7         1 BAV      -0.799200
     23 C53          4.0830     1.4720    -0.9790 c3         1 BAV       0.206100
     24 C56          5.4600     1.2960    -0.3970 ca         1 BAV      -0.090300
     25 C57          6.0370     0.0280    -0.3210 ca         1 BAV      -0.100000
     26 C59          7.3160    -0.1650     0.1860 ca         1 BAV      -0.077300
     27 C60          8.0290     0.9490     0.6330 ca         1 BAV      -0.121000
     28 C62          7.4680     2.2150     0.5690 ca         1 BAV      -0.133000
     29 C64          6.1870     2.3890     0.0570 ca         1 BAV      -0.129000
     30 C66          7.9230    -1.5490     0.2270 c3         1 BAV      -0.017400
     31 C68          9.0830    -1.6670    -0.7630 c3         1 BAV      -0.083600
     32 C72          8.3590    -1.9450     1.6360 c3         1 BAV      -0.083600
     33 O76         -0.3850    -3.1780    -0.5730 o          1 BAV      -0.618100
     34 C77         -3.3140    -3.8630    -1.2760 c3         1 BAV      -0.104100
     35 C81         -3.8010    -3.2430     2.1990 c3         1 BAV       0.084300
     36 H2          -2.3410    -4.1530     0.5760 h1         1 BAV       0.075700
     37 HN5         -2.4340    -0.8380    -0.4760 hn         1 BAV       0.341500
     38 H7          -0.1740    -0.8370    -2.0340 h1         1 BAV       0.051700
     39 H9          -0.4870     1.4570    -2.2160 hc         1 BAV       0.048200
     40 H9A         -2.0340     0.6850    -2.0870 hc         1 BAV       0.048200
     41 H12         -0.6590     2.5170    -0.1010 hc         1 BAV       0.033700
     42 H14         -1.8980     3.3870    -2.0500 hc         1 BAV       0.039700
     43 H14A        -3.3190     2.5170    -1.5570 hc         1 BAV       0.039700
     44 H17         -2.4350     4.2150     0.6650 hc         1 BAV       0.035700
     45 H17A        -2.4900     5.1600    -0.7910 hc         1 BAV       0.035700
     46 H20         -4.5620     5.4630     0.1890 hc         1 BAV       0.037200
     47 H20A        -4.8860     4.3960    -1.1470 hc         1 BAV       0.037200
     48 H23         -4.4150     3.2510     1.6280 hc         1 BAV       0.034200
     49 H23A        -5.9360     4.0110     1.2820 hc         1 BAV       0.034200
     50 H26         -6.5860     2.4060    -0.3200 hc         1 BAV       0.045700
     51 H26A        -4.9820     1.7610    -0.5270 hc         1 BAV       0.045700
     52 H29         -4.9710     0.9130     1.7910 hc         1 BAV       0.035200
     53 H29A        -6.5600     1.5610     2.0670 hc         1 BAV       0.035200
     54 H32         -7.5700    -0.2640     1.1310 hc         1 BAV       0.052200
     55 H32A        -6.6080    -0.1650    -0.3160 hc         1 BAV       0.052200
     56 H35         -5.5750    -1.3460     2.2930 hc         1 BAV       0.060200
     57 H35A        -6.4220    -2.3150     1.1280 hc         1 BAV       0.060200
     58 H40         -1.7160     0.6750     1.2940 hc         1 BAV       0.043367
     59 H40A        -2.4950     2.2280     1.4940 hc         1 BAV       0.043367
     60 H40B        -3.2440     1.0010     0.4910 hc         1 BAV       0.043367
     61 H44          1.2720    -1.2530    -0.2770 h1         1 BAV       0.111700
     62 HO46         0.4310     0.9940     1.1690 ho         1 BAV       0.393000
     63 H48          1.8650     0.4320    -2.0220 h1         1 BAV       0.030700
     64 H48A         1.4250     1.7220    -0.9100 h1         1 BAV       0.030700
     65 HN51         3.0800     0.7370     0.6100 hn         1 BAV       0.365800
     66 H53          4.1180     1.2680    -2.0550 h1         1 BAV       0.033200
     67 H53A         3.7830     2.5270    -0.8830 h1         1 BAV       0.033200
     68 H57          5.4710    -0.8290    -0.6690 ha         1 BAV       0.145000
     69 H60          9.0300     0.8320     1.0340 ha         1 BAV       0.128000
     70 H62          8.0280     3.0720     0.9200 ha         1 BAV       0.128000
     71 H64          5.7530     3.3810     0.0110 ha         1 BAV       0.124000
     72 H66          7.1450    -2.2520    -0.0880 hc         1 BAV       0.052700
     73 H68          9.8990    -0.9920    -0.5000 hc         1 BAV       0.033867
     74 H68A         9.4830    -2.6820    -0.7700 hc         1 BAV       0.033867
     75 H68B         8.7630    -1.4250    -1.7780 hc         1 BAV       0.033867
     76 H72          7.5340    -1.8690     2.3440 hc         1 BAV       0.033867
     77 H72A         8.7200    -2.9750     1.6490 hc         1 BAV       0.033867
     78 H72B         9.1700    -1.3110     1.9990 hc         1 BAV       0.033867
     79 H77         -3.5790    -3.0910    -1.9920 hc         1 BAV       0.053033
     80 H77A        -2.6040    -4.5400    -1.7500 hc         1 BAV       0.053033
     81 H77B        -4.2080    -4.4360    -1.0310 hc         1 BAV       0.053033
     82 H81         -2.8250    -3.5750     2.5460 h1         1 BAV       0.043700
     83 H81A        -4.1720    -2.5360     2.9340 h1         1 BAV       0.043700
     84 H81B        -4.4710    -4.1060     2.1790 h1         1 BAV       0.043700
@<TRIPOS>BOND
     1     1     2 1   
     2     1    16 1   
     3     1    35 1   
     4     2     3 1   
     5     2    34 1   
     6     2    36 1   
     7     3     4 1   
     8     3    33 2   
     9     4     5 1   
    10     4    37 1   
    11     5     6 1   
    12     5    19 1   
    13     5    38 1   
    14     6     7 1   
    15     6    39 1   
    16     6    40 1   
    17     7     8 1   
    18     7    18 1   
    19     7    41 1   
    20     8     9 1   
    21     8    42 1   
    22     8    43 1   
    23     9    10 1   
    24     9    44 1   
    25     9    45 1   
    26    10    11 1   
    27    10    46 1   
    28    10    47 1   
    29    11    12 1   
    30    11    48 1   
    31    11    49 1   
    32    12    13 1   
    33    12    50 1   
    34    12    51 1   
    35    13    14 1   
    36    13    52 1   
    37    13    53 1   
    38    14    15 1   
    39    14    54 1   
    40    14    55 1   
    41    15    16 1   
    42    15    56 1   
    43    15    57 1   
    44    16    17 2   
    45    18    58 1   
    46    18    59 1   
    47    18    60 1   
    48    19    20 1   
    49    19    21 1   
    50    19    61 1   
    51    20    62 1   
    52    21    22 1   
    53    21    63 1   
    54    21    64 1   
    55    22    23 1   
    56    22    65 1   
    57    23    24 1   
    58    23    66 1   
    59    23    67 1   
    60    24    25 ar  
    61    24    29 ar  
    62    25    26 ar  
    63    25    68 1   
    64    26    27 ar  
    65    26    30 1   
    66    27    28 ar  
    67    27    69 1   
    68    28    29 ar  
    69    28    70 1   
    70    29    71 1   
    71    30    31 1   
    72    30    32 1   
    73    30    72 1   
    74    31    73 1   
    75    31    74 1   
    76    31    75 1   
    77    32    76 1   
    78    32    77 1   
    79    32    78 1   
    80    34    79 1   
    81    34    80 1   
    82    34    81 1   
    83    35    82 1   
    84    35    83 1   
    85    35    84 1   
@<TRIPOS>SUBSTRUCTURE
     1 BAV         1 TEMP              0 ****  ****    0 ROOT
