@<TRIPOS>MOLECULE
BAW
   40    42     1     0     0
SMALL
No Charge or Current Charge


@<TRIPOS>ATOM
      1 C1          -3.4200    -0.4310     0.6560 ca         1 BAW       0.196100
      2 C2          -2.3980    -0.7350     1.5630 ca         1 BAW      -0.196000
      3 C3          -1.1340    -0.1540     1.4220 ca         1 BAW       0.211100
      4 C10         -4.3640    -0.1830    -2.5620 c3         1 BAW      -0.093100
      5 C11          0.4380     1.3750     0.1900 cc         1 BAW      -0.064000
      6 C14          2.6070     1.8160     0.0410 cd         1 BAW       0.277300
      7 C15          1.6660     0.7540     0.2070 cd         1 BAW      -0.170000
      8 C16          1.9730    -0.6990     0.1700 ca         1 BAW      -0.044000
      9 C19          2.6230    -3.4630     0.1870 ca         1 BAW      -0.081000
     10 C20          3.4070    -2.5480     0.9050 ca         1 BAW      -0.127000
     11 C21          3.0870    -1.1800     0.8930 ca         1 BAW      -0.082000
     12 C4          -0.8710     0.7400     0.3650 ca         1 BAW      -0.172000
     13 C5          -1.9090     1.0570    -0.5330 ca         1 BAW      -0.009000
     14 C6          -3.1870     0.4760    -0.4000 ca         1 BAW      -0.211300
     15 O7          -4.6360    -1.0220     0.8190 oh         1 BAW      -0.533100
     16 O8          -0.1700    -0.4390     2.3380 oh         1 BAW      -0.528100
     17 N12          0.6990     2.7310     0.0580 na         1 BAW       0.006800
     18 N13          2.0490     3.0130    -0.0290 nc         1 BAW      -0.518800
     19 C17          1.1990    -1.6350    -0.5640 ca         1 BAW       0.186000
     20 C18          1.5230    -3.0020    -0.5530 ca         1 BAW      -0.153000
     21 F22          0.1870    -1.2340    -1.3640 f          1 BAW      -0.172000
     22 C23          4.1000     1.6990    -0.1220 c3         1 BAW      -0.121400
     23 H1          -2.5890    -1.4220     2.3810 ha         1 BAW       0.147000
     24 H2          -4.0660     1.8280    -1.8480 hc         1 BAW       0.041700
     25 H3          -5.2510     0.9350    -0.9300 hc         1 BAW       0.041700
     26 H4          -4.6100    -1.1810    -2.1800 hc         1 BAW       0.038367
     27 H5          -5.1420     0.1120    -3.2770 hc         1 BAW       0.038367
     28 H6          -3.4110    -0.2450    -3.1000 hc         1 BAW       0.038367
     29 H7           2.8730    -4.5220     0.1950 ha         1 BAW       0.117000
     30 H8           4.2620    -2.9000     1.4790 ha         1 BAW       0.118000
     31 H9           3.6950    -0.4970     1.4810 ha         1 BAW       0.116000
     32 H10         -1.7150     1.7490    -1.3500 ha         1 BAW       0.114000
     33 H11         -5.2140    -0.7170     0.0900 ho         1 BAW       0.472000
     34 H12          0.6490    -0.0080     2.0130 ho         1 BAW       0.482000
     35 H13          0.0000     3.4720     0.0360 hn         1 BAW       0.376000
     36 H14          0.9260    -3.7020    -1.1310 ha         1 BAW       0.131000
     37 H15          4.3670     0.8030    -0.6930 hc         1 BAW       0.049367
     38 H16          4.5130     2.5610    -0.6590 hc         1 BAW       0.049367
     39 H17          4.5970     1.6470     0.8530 hc         1 BAW       0.049367
     40 C9          -4.2720     0.8410    -1.4150 c3         1 BAW      -0.024100
@<TRIPOS>BOND
     1     1     2 ar  
     2     1    14 ar  
     3     1    15 1   
     4     2     3 ar  
     5     2    23 1   
     6     3    12 ar  
     7     3    16 1   
     8     4    26 1   
     9     4    27 1   
    10     4    28 1   
    11     4    40 1   
    12     5     7 2   
    13     5    12 1   
    14     5    17 1   
    15     6     7 1   
    16     6    18 2   
    17     6    22 1   
    18     7     8 1   
    19     8    11 ar  
    20     8    19 ar  
    21     9    10 ar  
    22     9    20 ar  
    23     9    29 1   
    24    10    11 ar  
    25    10    30 1   
    26    11    31 1   
    27    12    13 ar  
    28    13    14 ar  
    29    13    32 1   
    30    14    40 1   
    31    15    33 1   
    32    16    34 1   
    33    17    18 1   
    34    17    35 1   
    35    19    20 ar  
    36    19    21 1   
    37    20    36 1   
    38    22    37 1   
    39    22    38 1   
    40    22    39 1   
    41    24    40 1   
    42    25    40 1   
@<TRIPOS>SUBSTRUCTURE
     1 BAW         1 TEMP              0 ****  ****    0 ROOT
