@<TRIPOS>MOLECULE
BAW
   40    42     1     0     0
SMALL
bcc


@<TRIPOS>ATOM
      1 C1          -3.4290    -0.3610     0.6630 ca         1 BAW       0.196100
      2 C2          -2.4300    -0.6750     1.5750 ca         1 BAW      -0.214000
      3 C3          -1.1610    -0.1270     1.4460 ca         1 BAW       0.211100
      4 C10         -4.3350    -0.2340    -2.5100 c3         1 BAW      -0.093100
      5 C11          0.4530     1.3130     0.2080 cc         1 BAW      -0.013300
      6 C14          2.6030     1.7970    -0.0590 cd         1 BAW       0.342600
      7 C15          1.7020     0.7180     0.1100 cd         1 BAW      -0.235300
      8 C16          2.0200    -0.7120     0.1340 ca         1 BAW      -0.044000
      9 C19          2.6280    -3.4530     0.1680 ca         1 BAW      -0.099000
     10 C20          3.2990    -2.5800     1.0130 ca         1 BAW      -0.145000
     11 C21          2.9930    -1.2280     0.9930 ca         1 BAW      -0.100000
     12 C4          -0.8820     0.7450     0.3880 ca         1 BAW      -0.172000
     13 C5          -1.9100     1.0520    -0.5000 ca         1 BAW      -0.027000
     14 C6          -3.1870     0.5270    -0.3950 ca         1 BAW      -0.211300
     15 O7          -4.6240    -0.9540     0.8560 oh         1 BAW      -0.494100
     16 O8          -0.2550    -0.4620     2.3840 oh         1 BAW      -0.489100
     17 N12          0.6740     2.6350     0.0950 na         1 BAW       0.006400
     18 N13          1.9550     2.9460    -0.0710 nc         1 BAW      -0.518800
     19 C17          1.3810    -1.6180    -0.7060 ca         1 BAW       0.150900
     20 C18          1.6590    -2.9710    -0.7010 ca         1 BAW      -0.171000
     21 F22          0.4660    -1.1590    -1.5710 f          1 BAW      -0.136900
     22 C23          4.0800     1.7330    -0.2410 c3         1 BAW      -0.121400
     23 H1          -2.6440    -1.3440     2.4000 ha         1 BAW       0.165000
     24 H2          -3.9840     1.7970    -1.8960 hc         1 BAW       0.041700
     25 H3          -5.2150     1.0050    -0.9690 hc         1 BAW       0.041700
     26 H4          -4.6060    -1.2050    -2.0920 hc         1 BAW       0.038367
     27 H5          -5.0890     0.0270    -3.2530 hc         1 BAW       0.038367
     28 H6          -3.3810    -0.3510    -3.0240 hc         1 BAW       0.038367
     29 H7           2.8570    -4.5100     0.1790 ha         1 BAW       0.135000
     30 H8           4.0560    -2.9510     1.6910 ha         1 BAW       0.136000
     31 H9           3.5060    -0.5520     1.6660 ha         1 BAW       0.134000
     32 H10         -1.6970     1.7220    -1.3270 ha         1 BAW       0.132000
     33 H11         -5.2820    -0.6210     0.2350 ho         1 BAW       0.433000
     34 H12          0.5710     0.0210     2.2540 ho         1 BAW       0.443000
     35 H13         -0.0170     3.3660     0.1570 hn         1 BAW       0.325700
     36 H14          1.1320    -3.6330    -1.3760 ha         1 BAW       0.149000
     37 H15          4.3520     0.9920    -0.9930 hc         1 BAW       0.049367
     38 H16          4.4710     2.6990    -0.5550 hc         1 BAW       0.049367
     39 H17          4.5880     1.4520     0.6830 hc         1 BAW       0.049367
     40 C9          -4.2340     0.8430    -1.4300 c3         1 BAW      -0.024100
@<TRIPOS>BOND
     1     1     2 ar  
     2     1    14 ar  
     3     1    15 1   
     4     2     3 ar  
     5     2    23 1   
     6     3    12 ar  
     7     3    16 1   
     8     4    26 1   
     9     4    27 1   
    10     4    28 1   
    11     4    40 1   
    12     5     7 2   
    13     5    12 1   
    14     5    17 1   
    15     6     7 1   
    16     6    18 2   
    17     6    22 1   
    18     7     8 1   
    19     8    11 ar  
    20     8    19 ar  
    21     9    10 ar  
    22     9    20 ar  
    23     9    29 1   
    24    10    11 ar  
    25    10    30 1   
    26    11    31 1   
    27    12    13 ar  
    28    13    14 ar  
    29    13    32 1   
    30    14    40 1   
    31    15    33 1   
    32    16    34 1   
    33    17    18 1   
    34    17    35 1   
    35    19    20 ar  
    36    19    21 1   
    37    20    36 1   
    38    22    37 1   
    39    22    38 1   
    40    22    39 1   
    41    24    40 1   
    42    25    40 1   
@<TRIPOS>SUBSTRUCTURE
     1 BAW         1 TEMP              0 ****  ****    0 ROOT
