@<TRIPOS>MOLECULE
BAX
   48    50     1     0     0
SMALL
No Charge or Current Charge


@<TRIPOS>ATOM
      1 C1          -1.4140    -0.5760    -5.0290 ca         1 BAX      -0.121000
      2 C2          -0.7720     0.0730    -3.9560 ca         1 BAX      -0.007000
      3 C3           0.3020     0.9450    -4.2290 ca         1 BAX      -0.093000
      4 C4           0.7180     1.1570    -5.5530 ca         1 BAX      -0.083000
      5 C13         -0.8640     0.2560    -1.3920 c          1 BAX       0.667100
      6 C16         -1.6440    -0.1370     1.0280 ca         1 BAX      -0.010000
      7 C17         -2.5610    -0.9070     1.7690 ca         1 BAX      -0.128500
      8 C18         -2.6180    -0.8050     3.1710 ca         1 BAX      -0.085500
      9 C19         -1.7510     0.0650     3.8480 ca         1 BAX       0.065100
     10 C20         -0.8400     0.8510     3.1180 ca         1 BAX      -0.085500
     11 C21         -0.7830     0.7490     1.7160 ca         1 BAX      -0.128500
     12 O22         -1.8330     0.1580     5.2190 os         1 BAX      -0.242200
     13 C24         -0.7980     1.0460     7.1890 ca         1 BAX      -0.184000
     14 C25          0.3310     1.1410     8.0100 ca         1 BAX       0.362900
     15 C27          1.5730    -0.2650     6.6090 ca         1 BAX       0.318500
     16 C28          0.4720    -0.4020     5.7390 ca         1 BAX      -0.186000
     17 N30          3.9100    -0.7990     7.2090 ns         1 BAX      -0.486900
     18 C31          5.2450    -1.3930     7.1150 c3         1 BAX       0.096300
     19 C5           0.0750     0.5080    -6.6190 ca         1 BAX       0.132000
     20 C6          -1.0060    -0.3720    -6.3700 ca         1 BAX      -0.163300
     21 C7          -1.7220    -1.0920    -7.5260 c3         1 BAX       0.364300
     22 F8          -2.2720    -0.2170    -8.3990 f          1 BAX      -0.108000
     23 F9          -0.8770    -1.8810    -8.2280 f          1 BAX      -0.108000
     24 F10         -2.7290    -1.8930    -7.1070 f          1 BAX      -0.108000
     25 Cl11         0.6620     0.8320    -8.2520 cl         1 BAX      -0.168000
     26 N12         -1.2550    -0.1970    -2.6450 ns         1 BAX      -0.165000
     27 N14         -1.6470    -0.2950    -0.3870 ns         1 BAX      -0.163000
     28 O15          0.0570     1.0400    -1.1990 o          1 BAX      -0.591100
     29 C23         -0.7250     0.2710     6.0280 ca         1 BAX       0.167100
     30 N26          1.4940     0.5070     7.7350 nb         1 BAX      -0.701000
     31 O32          3.0520    -1.7110     5.3110 o          1 BAX      -0.606100
     32 H1          -2.2410    -1.2470    -4.8070 ha         1 BAX       0.130000
     33 H3           0.8280     1.4680    -3.4370 ha         1 BAX       0.156000
     34 H4           1.5460     1.8310    -5.7570 ha         1 BAX       0.139000
     35 H17         -3.2370    -1.5900     1.2590 ha         1 BAX       0.131500
     36 H18         -3.3320    -1.4030     3.7320 ha         1 BAX       0.133000
     37 H20         -0.1810     1.5460     3.6320 ha         1 BAX       0.133000
     38 H21         -0.0690     1.3720     1.1870 ha         1 BAX       0.131500
     39 H24         -1.7110     1.5710     7.4510 ha         1 BAX       0.140000
     40 H25          0.3080     1.7420     8.9180 h4         1 BAX       0.023100
     41 H28          0.5520    -1.0290     4.8570 ha         1 BAX       0.162000
     42 H30          3.6870    -0.1930     7.9930 hn         1 BAX       0.343500
     43 H311         5.8510    -1.0680     7.9710 h1         1 BAX       0.040700
     44 H312         5.1640    -2.4870     7.1230 h1         1 BAX       0.040700
     45 H313         5.7290    -1.0680     6.1850 h1         1 BAX       0.040700
     46 H12         -2.0330    -0.8430    -2.6250 hn         1 BAX       0.153000
     47 H14         -2.3590    -0.9310    -0.7200 hn         1 BAX       0.151000
     48 C29          2.8900    -0.9960     6.2960 c          1 BAX       0.499600
@<TRIPOS>BOND
     1     1     2 ar  
     2     1    20 ar  
     3     1    32 1   
     4     2     3 ar  
     5     2    26 1   
     6     3     4 ar  
     7     3    33 1   
     8     4    19 ar  
     9     4    34 1   
    10     5    26 1   
    11     5    27 1   
    12     5    28 2   
    13     6     7 ar  
    14     6    11 ar  
    15     6    27 1   
    16     7     8 ar  
    17     7    35 1   
    18     8     9 ar  
    19     8    36 1   
    20     9    10 ar  
    21     9    12 1   
    22    10    11 ar  
    23    10    37 1   
    24    11    38 1   
    25    12    29 1   
    26    13    14 ar  
    27    13    29 ar  
    28    13    39 1   
    29    14    30 ar  
    30    14    40 1   
    31    15    16 ar  
    32    15    30 ar  
    33    15    48 1   
    34    16    29 ar  
    35    16    41 1   
    36    17    18 1   
    37    17    42 1   
    38    17    48 1   
    39    18    43 1   
    40    18    44 1   
    41    18    45 1   
    42    19    20 ar  
    43    19    25 1   
    44    20    21 1   
    45    21    22 1   
    46    21    23 1   
    47    21    24 1   
    48    26    46 1   
    49    27    47 1   
    50    31    48 2   
@<TRIPOS>SUBSTRUCTURE
     1 BAX         1 TEMP              0 ****  ****    0 ROOT
