@<TRIPOS>MOLECULE
BAX
   48    50     1     0     0
SMALL
bcc


@<TRIPOS>ATOM
      1 C1          -1.4140    -0.4050    -4.8420 ca         1 BAX      -0.139000
      2 C2          -0.7040    -0.2150    -3.6560 ca         1 BAX       0.085600
      3 C3           0.6470     0.1220    -3.7320 ca         1 BAX      -0.111000
      4 C4           1.2520     0.2690    -4.9680 ca         1 BAX      -0.101000
      5 C13         -1.0600     0.0360    -1.2200 c          1 BAX       0.801100
      6 C16         -1.8550    -0.1090     1.1060 ca         1 BAX       0.082600
      7 C17         -2.2960    -1.0840     2.0000 ca         1 BAX      -0.146500
      8 C18         -2.2890    -0.8510     3.3650 ca         1 BAX      -0.103500
      9 C19         -1.8350     0.3650     3.8430 ca         1 BAX       0.065100
     10 C20         -1.3980     1.3470     2.9700 ca         1 BAX      -0.103500
     11 C21         -1.4130     1.1180     1.6030 ca         1 BAX      -0.146500
     12 O22         -1.8680     0.6130     5.2000 os         1 BAX      -0.242200
     13 C24         -0.8450     0.6920     7.2950 ca         1 BAX      -0.267300
     14 C25          0.2830     0.5120     8.0720 ca         1 BAX       0.428200
     15 C27          1.5260    -0.1390     6.2880 ca         1 BAX       0.383800
     16 C28          0.4620     0.0020     5.4100 ca         1 BAX      -0.269300
     17 N30          3.8220    -0.7000     6.6520 ns         1 BAX      -0.553900
     18 C31          5.1590    -1.1240     6.3170 c3         1 BAX       0.096300
     19 C5           0.5400     0.0790    -6.1380 ca         1 BAX       0.040400
     20 C6          -0.8080    -0.2670    -6.0790 ca         1 BAX      -0.163300
     21 C7          -1.6060    -0.4960    -7.3300 c3         1 BAX       0.728200
     22 F8          -1.6110     0.5810    -8.1220 f          1 BAX      -0.229300
     23 F9          -1.1160    -1.5130    -8.0470 f          1 BAX      -0.229300
     24 F10         -2.8820    -0.7870    -7.0660 f          1 BAX      -0.229300
     25 CL11         1.3650     0.2670    -7.6470 cl         1 BAX      -0.076400
     26 N12         -1.3950    -0.4250    -2.4680 ns         1 BAX      -0.491100
     27 N14         -1.9350    -0.3960    -0.2600 ns         1 BAX      -0.489100
     28 O15         -0.1010     0.7490    -0.9950 o          1 BAX      -0.591100
     29 C23         -0.7540     0.4300     5.9310 ca         1 BAX       0.167100
     30 N26          1.4510     0.1050     7.5900 nb         1 BAX      -0.701000
     31 O32          3.0030    -0.8380     4.5520 o          1 BAX      -0.606100
     32 H1          -2.4630    -0.6620    -4.7810 ha         1 BAX       0.148000
     33 H3           1.2420     0.2630    -2.8450 ha         1 BAX       0.174000
     34 H4           2.3010     0.5270    -5.0140 ha         1 BAX       0.157000
     35 H17         -2.6470    -2.0380     1.6270 ha         1 BAX       0.149500
     36 H18         -2.6370    -1.6160     4.0480 ha         1 BAX       0.151000
     37 H20         -1.0570     2.3020     3.3490 ha         1 BAX       0.151000
     38 H21         -1.0950     1.9060     0.9390 ha         1 BAX       0.149500
     39 H24         -1.7730     1.0280     7.7380 ha         1 BAX       0.158000
     40 H25          0.2390     0.7070     9.1370 h4         1 BAX       0.023100
     41 H28          0.5970    -0.2160     4.3610 ha         1 BAX       0.180000
     42 H30          3.5880    -0.4910     7.6100 hn         1 BAX       0.343500
     43 H311         5.7740    -1.0620     7.2100 h1         1 BAX       0.040700
     44 H312         5.1780    -2.1540     5.9560 h1         1 BAX       0.040700
     45 H313         5.5980    -0.4860     5.5510 h1         1 BAX       0.040700
     46 H12         -2.2970    -0.8670    -2.5710 hn         1 BAX       0.319500
     47 H14         -2.5570    -1.1520    -0.5020 hn         1 BAX       0.317500
     48 C29          2.8540    -0.5940     5.7430 c          1 BAX       0.566600
@<TRIPOS>BOND
     1     1     2 ar  
     2     1    20 ar  
     3     1    32 1   
     4     2     3 ar  
     5     2    26 1   
     6     3     4 ar  
     7     3    33 1   
     8     4    19 ar  
     9     4    34 1   
    10     5    26 1   
    11     5    27 1   
    12     5    28 2   
    13     6     7 ar  
    14     6    11 ar  
    15     6    27 1   
    16     7     8 ar  
    17     7    35 1   
    18     8     9 ar  
    19     8    36 1   
    20     9    10 ar  
    21     9    12 1   
    22    10    11 ar  
    23    10    37 1   
    24    11    38 1   
    25    12    29 1   
    26    13    14 ar  
    27    13    29 ar  
    28    13    39 1   
    29    14    30 ar  
    30    14    40 1   
    31    15    16 ar  
    32    15    30 ar  
    33    15    48 1   
    34    16    29 ar  
    35    16    41 1   
    36    17    18 1   
    37    17    42 1   
    38    17    48 1   
    39    18    43 1   
    40    18    44 1   
    41    18    45 1   
    42    19    20 ar  
    43    19    25 1   
    44    20    21 1   
    45    21    22 1   
    46    21    23 1   
    47    21    24 1   
    48    26    46 1   
    49    27    47 1   
    50    31    48 2   
@<TRIPOS>SUBSTRUCTURE
     1 BAX         1 TEMP              0 ****  ****    0 ROOT
