@<TRIPOS>MOLECULE
BAY
  162   167     1     0     0
SMALL
No Charge or Current Charge


@<TRIPOS>ATOM
      1 C1           6.8540     2.5460    -8.2430 c3         1 BAY      -0.086600
      2 C2           6.3400     0.3170    -7.1550 c3         1 BAY      -0.086600
      3 C3           5.4620     0.8280    -9.4860 c3         1 BAY      -0.086600
      4 C4           5.7780     1.4320    -8.0860 c3         1 BAY      -0.206500
      5 S5           4.2490     2.1880    -7.3550 s6         1 BAY       1.022000
      6 O6           3.7590     3.2090    -8.2900 o          1 BAY      -0.513500
      7 O7           4.5510     2.5790    -5.9720 o          1 BAY      -0.513500
      8 C8           3.0080     0.8610    -7.2900 c3         1 BAY      -0.283400
      9 C9           1.7180     1.1800    -6.4630 c3         1 BAY      -0.107200
     10 C10          0.7870     2.2270    -7.1350 c3         1 BAY      -0.032100
     11 C11         -0.4270     2.5820    -6.2670 ca         1 BAY      -0.070800
     12 C12         -0.2020     3.4680    -5.1920 ca         1 BAY      -0.106500
     13 C13         -1.2510     3.8670    -4.3530 ca         1 BAY      -0.107500
     14 C14         -2.5480     3.3910    -4.5790 ca         1 BAY      -0.101000
     15 C15         -2.7990     2.5040    -5.6400 ca         1 BAY      -0.042500
     16 C16         -4.1130     2.0430    -5.8480 ca         1 BAY      -0.103500
     17 C17         -4.3940     1.1470    -6.8890 ca         1 BAY      -0.108000
     18 C18         -3.3600     0.7110    -7.7290 ca         1 BAY      -0.113000
     19 C19         -2.0480     1.1740    -7.5360 ca         1 BAY      -0.094500
     20 C20         -1.7430     2.0820    -6.4910 ca         1 BAY      -0.023500
     21 C21          0.9480    -0.1250    -6.1610 c          1 BAY       0.610100
     22 O22          0.4980    -0.8470    -7.0400 o          1 BAY      -0.611100
     23 N23          0.8320    -0.4350    -4.8240 ns         1 BAY      -0.496400
     24 C24          0.2290    -1.6700    -4.2740 c3         1 BAY       0.038200
     25 C25          1.1430    -2.9080    -4.5630 c3         1 BAY      -0.076200
     26 C26          2.5460    -2.7950    -3.9150 c3         1 BAY      -0.088350
     27 C27          0.4750    -4.2590    -4.2130 c3         1 BAY      -0.088350
     28 C28         -0.0570    -1.4570    -2.7560 c          1 BAY       0.592600
     29 O29          0.5140    -0.6020    -2.0920 o          1 BAY      -0.587100
     30 N30         -1.0080    -2.2900    -2.2020 ns         1 BAY      -0.497900
     31 C31         -1.4070    -2.2970    -0.7840 c3         1 BAY       0.072700
     32 C32         -2.9480    -2.2510    -0.6510 c3         1 BAY      -0.043100
     33 C33         -3.5550    -0.9850    -1.2460 ca         1 BAY      -0.091300
     34 C34         -4.3080    -1.0420    -2.4350 ca         1 BAY      -0.104500
     35 C35         -4.8790     0.1270    -2.9680 ca         1 BAY      -0.106000
     36 C36         -4.6980     1.3590    -2.3160 ca         1 BAY      -0.106000
     37 C37         -3.9410     1.4230    -1.1350 ca         1 BAY      -0.106000
     38 C38         -3.3720     0.2540    -0.6010 ca         1 BAY      -0.104500
     39 C39         -0.7760    -3.4930    -0.0030 c3         1 BAY       0.132800
     40 O40         -1.1810    -4.7370    -0.6030 oh         1 BAY      -0.655000
     41 C41          0.7840    -3.4780     0.0450 c3         1 BAY       0.132800
     42 O42          1.2400    -4.7240     0.6170 oh         1 BAY      -0.655000
     43 C43          1.4020    -2.2730     0.8250 c3         1 BAY       0.072700
     44 C44          2.9380    -2.1870     0.6590 c3         1 BAY      -0.043100
     45 C45          3.5200    -0.8950     1.2190 ca         1 BAY      -0.091300
     46 C46          4.2860    -0.9050     2.4020 ca         1 BAY      -0.104500
     47 C47          4.8340     0.2900     2.9000 ca         1 BAY      -0.106000
     48 C48          4.6210     1.5000     2.2180 ca         1 BAY      -0.106000
     49 C49          3.8510     1.5170     1.0440 ca         1 BAY      -0.106000
     50 C50          3.3040     0.3230     0.5450 ca         1 BAY      -0.104500
     51 N51          1.0370    -2.2690     2.2560 ns         1 BAY      -0.497900
     52 C52         -0.0050    -1.5440     2.8020 c          1 BAY       0.592600
     53 O53         -0.7190    -0.8260     2.1160 o          1 BAY      -0.587100
     54 C54         -0.2020    -1.6920     4.3410 c3         1 BAY       0.038200
     55 C55         -0.9900    -2.9870     4.7330 c3         1 BAY      -0.076200
     56 C56         -2.4310    -3.0230     4.1620 c3         1 BAY      -0.088350
     57 C57         -0.2280    -4.2890     4.3920 c3         1 BAY      -0.088350
     58 N58         -0.8910    -0.4850     4.8500 ns         1 BAY      -0.496400
     59 C59         -0.9890    -0.1120     6.1720 c          1 BAY       0.610100
     60 O60         -0.4590    -0.7500     7.0720 o          1 BAY      -0.611100
     61 C61         -1.8440     1.1480     6.4320 c3         1 BAY      -0.107200
     62 C62         -0.9740     2.2950     7.0160 c3         1 BAY      -0.032100
     63 C63          0.2130     2.6540     6.1110 ca         1 BAY      -0.070800
     64 C64         -0.0700     3.4350     4.9710 ca         1 BAY      -0.106500
     65 C65          0.9490     3.8270     4.0920 ca         1 BAY      -0.107500
     66 C66          2.2730     3.4500     4.3430 ca         1 BAY      -0.101000
     67 C67          2.5830     2.6690     5.4710 ca         1 BAY      -0.042500
     68 C68          3.9230     2.3060     5.7030 ca         1 BAY      -0.103500
     69 C69          4.2630     1.5160     6.8090 ca         1 BAY      -0.108000
     70 C70          3.2620     1.0880     7.6910 ca         1 BAY      -0.113000
     71 C71          1.9230     1.4530     7.4740 ca         1 BAY      -0.094500
     72 C72          1.5590     2.2540     6.3620 ca         1 BAY      -0.023500
     73 C73         -3.0820     0.7840     7.3190 c3         1 BAY      -0.283400
     74 S74         -4.4050     2.0290     7.3720 s6         1 BAY       1.022000
     75 O75         -3.9500     3.1240     8.2390 o          1 BAY      -0.513500
     76 O76         -4.7820     2.3320     5.9850 o          1 BAY      -0.513500
     77 C77         -5.8530     1.2130     8.1970 c3         1 BAY      -0.206500
     78 C78         -6.9940     2.2610     8.3430 c3         1 BAY      -0.086600
     79 C79         -6.3720     0.0180     7.3420 c3         1 BAY      -0.086600
     80 C80         -5.4470     0.7010     9.6100 c3         1 BAY      -0.086600
     81 H11          7.1030     2.9950    -7.2730 hc         1 BAY       0.054756
     82 H12A         7.7790     2.1410    -8.6710 hc         1 BAY       0.054756
     83 H13A         6.5030     3.3470    -8.9060 hc         1 BAY       0.054756
     84 H21          6.5440     0.7020    -6.1480 hc         1 BAY       0.054756
     85 H22          5.6450    -0.5260    -7.0620 hc         1 BAY       0.054756
     86 H23          7.2810    -0.0820    -7.5530 hc         1 BAY       0.054756
     87 H31A         5.0450     1.5850   -10.1620 hc         1 BAY       0.054756
     88 H32          6.3720     0.4310    -9.9520 hc         1 BAY       0.054756
     89 H33          4.7430     0.0020    -9.4150 hc         1 BAY       0.054756
     90 H81          3.5180     0.0040    -6.8370 h1         1 BAY       0.102200
     91 H82          2.7520     0.6110    -8.3250 h1         1 BAY       0.102200
     92 H9           2.0330     1.5980    -5.4990 hc         1 BAY       0.085700
     93 H101         1.3540     3.1480    -7.3070 hc         1 BAY       0.071200
     94 H102         0.5110     1.8920    -8.1390 hc         1 BAY       0.071200
     95 H12          0.7970     3.8560    -5.0080 ha         1 BAY       0.123000
     96 H13         -1.0590     4.5520    -3.5300 ha         1 BAY       0.115500
     97 H14         -3.3570     3.7120    -3.9270 ha         1 BAY       0.113500
     98 H16         -4.9200     2.3790    -5.2030 ha         1 BAY       0.111500
     99 H17         -5.4100     0.7910    -7.0430 ha         1 BAY       0.112000
    100 H18         -3.5750     0.0130    -8.5340 ha         1 BAY       0.113000
    101 H19         -1.2840     0.8030    -8.2100 ha         1 BAY       0.130500
    102 HN2          1.2160     0.2320    -4.1640 hn         1 BAY       0.344500
    103 H24         -0.7410    -1.8210    -4.7660 h1         1 BAY       0.078200
    104 H25          1.3050    -2.9380    -5.6470 hc         1 BAY       0.067700
    105 H261         3.1680    -3.6560    -4.1910 hc         1 BAY       0.036450
    106 H262         3.0660    -1.8900    -4.2520 hc         1 BAY       0.036450
    107 H263         2.4780    -2.7640    -2.8220 hc         1 BAY       0.036450
    108 H271         0.4010    -4.4030    -3.1290 hc         1 BAY       0.036450
    109 H272        -0.5320    -4.3210    -4.6440 hc         1 BAY       0.036450
    110 H273         1.0640    -5.0920    -4.6170 hc         1 BAY       0.036450
    111 HN3         -1.4250    -2.9810    -2.8140 hn         1 BAY       0.309500
    112 H31         -1.0400    -1.3720    -0.3240 h1         1 BAY       0.108200
    113 H321        -3.3820    -3.1420    -1.1200 hc         1 BAY       0.057450
    114 H322        -3.2120    -2.3090     0.4120 hc         1 BAY       0.057450
    115 H34         -4.4560    -1.9900    -2.9460 ha         1 BAY       0.107000
    116 H35         -5.4630     0.0770    -3.8840 ha         1 BAY       0.118000
    117 H36         -5.1460     2.2620    -2.7230 ha         1 BAY       0.116000
    118 H37         -3.7990     2.3760    -0.6310 ha         1 BAY       0.118000
    119 H38         -2.7930     0.3110     0.3180 ha         1 BAY       0.107000
    120 H39         -1.1430    -3.4500     1.0310 h1         1 BAY       0.078700
    121 HO4         -0.4530    -5.3630    -0.3810 ho         1 BAY       0.448000
    122 H41          1.1390    -3.4120    -0.9920 h1         1 BAY       0.078700
    123 HO2          1.2230    -4.6200     1.5920 ho         1 BAY       0.448000
    124 H43          1.0040    -1.3550     0.3730 h1         1 BAY       0.108200
    125 H441         3.4090    -3.0580     1.1310 hc         1 BAY       0.057450
    126 H442         3.1840    -2.2550    -0.4080 hc         1 BAY       0.057450
    127 H46          4.4610    -1.8370     2.9340 ha         1 BAY       0.107000
    128 H47          5.4280     0.2760     3.8110 ha         1 BAY       0.118000
    129 H48          5.0530     2.4230     2.5970 ha         1 BAY       0.116000
    130 H49          3.6840     2.4540     0.5170 ha         1 BAY       0.118000
    131 H50          2.7150     0.3450    -0.3700 ha         1 BAY       0.107000
    132 HN5          1.6340    -2.7640     2.9090 hn         1 BAY       0.309500
    133 H54          0.7970    -1.7280     4.7950 h1         1 BAY       0.078200
    134 H55         -1.0890    -2.9830     5.8250 hc         1 BAY       0.067700
    135 H561        -2.9600    -3.9180     4.5110 hc         1 BAY       0.036450
    136 H562        -3.0080    -2.1490     4.4870 hc         1 BAY       0.036450
    137 H563        -2.4240    -3.0410     3.0660 hc         1 BAY       0.036450
    138 H571        -0.2060    -4.4670     3.3110 hc         1 BAY       0.036450
    139 H572         0.8030    -4.2490     4.7640 hc         1 BAY       0.036450
    140 H573        -0.7190    -5.1520     4.8590 hc         1 BAY       0.036450
    141 HN8         -1.3520     0.1120     4.1710 hn         1 BAY       0.344500
    142 H61         -2.2190     1.4890     5.4590 hc         1 BAY       0.085700
    143 H621        -1.5940     3.1920     7.1230 hc         1 BAY       0.071200
    144 H622        -0.6720     2.0520     8.0390 hc         1 BAY       0.071200
    145 H64         -1.0920     3.7460     4.7650 ha         1 BAY       0.123000
    146 H65          0.7120     4.4300     3.2180 ha         1 BAY       0.115500
    147 H66          3.0580     3.7650     3.6600 ha         1 BAY       0.113500
    148 H68          4.7060     2.6370     5.0250 ha         1 BAY       0.111500
    149 H69          5.3000     1.2350     6.9820 ha         1 BAY       0.112000
    150 H70          3.5230     0.4710     8.5480 ha         1 BAY       0.113000
    151 H71          1.1870     1.0910     8.1820 ha         1 BAY       0.130500
    152 H731        -3.5480    -0.1240     6.9230 h1         1 BAY       0.102200
    153 H732        -2.7750     0.5990     8.3540 h1         1 BAY       0.102200
    154 H781        -7.8750     1.8180     8.8250 hc         1 BAY       0.054756
    155 H782        -6.6740     3.1140     8.9530 hc         1 BAY       0.054756
    156 H783        -7.3080     2.6440     7.3640 hc         1 BAY       0.054756
    157 H791        -6.6370     0.3400     6.3270 hc         1 BAY       0.054756
    158 H792        -5.6260    -0.7810     7.2620 hc         1 BAY       0.054756
    159 H793        -7.2690    -0.4210     7.7940 hc         1 BAY       0.054756
    160 H801        -5.0580     1.5160    10.2330 hc         1 BAY       0.054756
    161 H802        -6.3110     0.2690    10.1300 hc         1 BAY       0.054756
    162 H803        -4.6780    -0.0790     9.5510 hc         1 BAY       0.054756
@<TRIPOS>BOND
     1     1     4 1   
     2     1    81 1   
     3     1    82 1   
     4     1    83 1   
     5     2     4 1   
     6     2    84 1   
     7     2    85 1   
     8     2    86 1   
     9     3     4 1   
    10     3    87 1   
    11     3    88 1   
    12     3    89 1   
    13     4     5 1   
    14     5     6 2   
    15     5     7 2   
    16     5     8 1   
    17     8     9 1   
    18     8    90 1   
    19     8    91 1   
    20     9    10 1   
    21     9    21 1   
    22     9    92 1   
    23    10    11 1   
    24    10    93 1   
    25    10    94 1   
    26    11    12 ar  
    27    11    20 ar  
    28    12    13 ar  
    29    12    95 1   
    30    13    14 ar  
    31    13    96 1   
    32    14    15 ar  
    33    14    97 1   
    34    15    16 ar  
    35    15    20 ar  
    36    16    17 ar  
    37    16    98 1   
    38    17    18 ar  
    39    17    99 1   
    40    18    19 ar  
    41    18   100 1   
    42    19    20 ar  
    43    19   101 1   
    44    21    22 2   
    45    21    23 1   
    46    23    24 1   
    47    23   102 1   
    48    24    25 1   
    49    24    28 1   
    50    24   103 1   
    51    25    26 1   
    52    25    27 1   
    53    25   104 1   
    54    26   105 1   
    55    26   106 1   
    56    26   107 1   
    57    27   108 1   
    58    27   109 1   
    59    27   110 1   
    60    28    29 2   
    61    28    30 1   
    62    30    31 1   
    63    30   111 1   
    64    31    32 1   
    65    31    39 1   
    66    31   112 1   
    67    32    33 1   
    68    32   113 1   
    69    32   114 1   
    70    33    34 ar  
    71    33    38 ar  
    72    34    35 ar  
    73    34   115 1   
    74    35    36 ar  
    75    35   116 1   
    76    36    37 ar  
    77    36   117 1   
    78    37    38 ar  
    79    37   118 1   
    80    38   119 1   
    81    39    40 1   
    82    39    41 1   
    83    39   120 1   
    84    40   121 1   
    85    41    42 1   
    86    41    43 1   
    87    41   122 1   
    88    42   123 1   
    89    43    44 1   
    90    43    51 1   
    91    43   124 1   
    92    44    45 1   
    93    44   125 1   
    94    44   126 1   
    95    45    46 ar  
    96    45    50 ar  
    97    46    47 ar  
    98    46   127 1   
    99    47    48 ar  
   100    47   128 1   
   101    48    49 ar  
   102    48   129 1   
   103    49    50 ar  
   104    49   130 1   
   105    50   131 1   
   106    51    52 1   
   107    51   132 1   
   108    52    53 2   
   109    52    54 1   
   110    54    55 1   
   111    54    58 1   
   112    54   133 1   
   113    55    56 1   
   114    55    57 1   
   115    55   134 1   
   116    56   135 1   
   117    56   136 1   
   118    56   137 1   
   119    57   138 1   
   120    57   139 1   
   121    57   140 1   
   122    58    59 1   
   123    58   141 1   
   124    59    60 2   
   125    59    61 1   
   126    61    62 1   
   127    61    73 1   
   128    61   142 1   
   129    62    63 1   
   130    62   143 1   
   131    62   144 1   
   132    63    64 ar  
   133    63    72 ar  
   134    64    65 ar  
   135    64   145 1   
   136    65    66 ar  
   137    65   146 1   
   138    66    67 ar  
   139    66   147 1   
   140    67    68 ar  
   141    67    72 ar  
   142    68    69 ar  
   143    68   148 1   
   144    69    70 ar  
   145    69   149 1   
   146    70    71 ar  
   147    70   150 1   
   148    71    72 ar  
   149    71   151 1   
   150    73    74 1   
   151    73   152 1   
   152    73   153 1   
   153    74    75 2   
   154    74    76 2   
   155    74    77 1   
   156    77    78 1   
   157    77    79 1   
   158    77    80 1   
   159    78   154 1   
   160    78   155 1   
   161    78   156 1   
   162    79   157 1   
   163    79   158 1   
   164    79   159 1   
   165    80   160 1   
   166    80   161 1   
   167    80   162 1   
@<TRIPOS>SUBSTRUCTURE
     1 BAY         1 TEMP              0 ****  ****    0 ROOT
