@<TRIPOS>MOLECULE
BAY
  162   167     1     0     0
SMALL
bcc


@<TRIPOS>ATOM
      1 C1           3.8870     5.2260    -6.5180 c3         1 BAY      -0.086600
      2 C2           4.0330     3.3410    -4.8670 c3         1 BAY      -0.086600
      3 C3           4.5190     2.9200    -7.3030 c3         1 BAY      -0.086600
      4 C4           3.6980     3.7250    -6.3030 c3         1 BAY      -0.095700
      5 S5           1.9200     3.4160    -6.6200 s6         1 BAY       0.942000
      6 O6           1.6260     3.8310    -7.9960 o          1 BAY      -0.584300
      7 O7           1.1380     4.0370    -5.5460 o          1 BAY      -0.584300
      8 C8           1.6880     1.6270    -6.4950 c3         1 BAY      -0.172600
      9 C9           0.2210     1.2530    -6.2340 c3         1 BAY      -0.107200
     10 C10         -0.6770     1.5240    -7.4450 c3         1 BAY      -0.032100
     11 C11         -2.1500     1.4360    -7.1360 ca         1 BAY      -0.070800
     12 C12         -2.7050     2.4400    -6.3780 ca         1 BAY      -0.124500
     13 C13         -4.0760     2.4710    -6.0700 ca         1 BAY      -0.125500
     14 C14         -4.9000     1.4800    -6.5240 ca         1 BAY      -0.119000
     15 C15         -4.3800     0.4230    -7.3040 ca         1 BAY      -0.042500
     16 C16         -5.2290    -0.6050    -7.7800 ca         1 BAY      -0.121500
     17 C17         -4.7370    -1.6240    -8.5450 ca         1 BAY      -0.126000
     18 C18         -3.3650    -1.6580    -8.8660 ca         1 BAY      -0.131000
     19 C19         -2.5190    -0.6820    -8.4170 ca         1 BAY      -0.112500
     20 C20         -2.9910     0.3920    -7.6200 ca         1 BAY      -0.023500
     21 C21          0.2480    -0.2280    -5.8610 c          1 BAY       0.677100
     22 O22          0.2590    -1.1050    -6.7090 o          1 BAY      -0.611100
     23 N23          0.3510    -0.4690    -4.5460 ns         1 BAY      -0.563400
     24 C24          0.5570    -1.7920    -4.0010 c3         1 BAY       0.038200
     25 C25          2.0350    -2.2370    -4.1150 c3         1 BAY      -0.076200
     26 C26          3.0010    -1.3290    -3.3640 c3         1 BAY      -0.088350
     27 C27          2.2220    -3.6930    -3.7060 c3         1 BAY      -0.088350
     28 C28          0.0770    -1.7630    -2.5530 c          1 BAY       0.659600
     29 O29          0.2700    -0.7850    -1.8500 o          1 BAY      -0.587100
     30 N30         -0.5220    -2.8910    -2.1270 ns         1 BAY      -0.564900
     31 C31         -1.2080    -3.0020    -0.8560 c3         1 BAY       0.072700
     32 C32         -2.7280    -2.8960    -1.0600 c3         1 BAY      -0.043100
     33 C33         -3.0810    -1.5690    -1.6650 ca         1 BAY      -0.091300
     34 C34         -3.1720    -1.4170    -3.0460 ca         1 BAY      -0.122500
     35 C35         -3.3840    -0.1670    -3.6120 ca         1 BAY      -0.124000
     36 C36         -3.5280     0.9490    -2.7990 ca         1 BAY      -0.124000
     37 C37         -3.4600     0.8060    -1.4190 ca         1 BAY      -0.124000
     38 C38         -3.2310    -0.4430    -0.8610 ca         1 BAY      -0.122500
     39 C39         -0.8220    -4.2930    -0.1240 c3         1 BAY       0.109600
     40 O40         -1.2430    -5.4360    -0.8340 oh         1 BAY      -0.592800
     41 C41          0.6710    -4.3810     0.2230 c3         1 BAY       0.109600
     42 O42          0.9660    -5.5940     0.8770 oh         1 BAY      -0.592800
     43 C43          1.1920    -3.1720     1.0090 c3         1 BAY       0.072700
     44 C44          2.7090    -3.2500     1.2380 c3         1 BAY      -0.043100
     45 C45          3.1900    -2.0220     1.9530 ca         1 BAY      -0.091300
     46 C46          3.2760    -1.9960     3.3420 ca         1 BAY      -0.122500
     47 C47          3.6020    -0.8260     4.0140 ca         1 BAY      -0.124000
     48 C48          3.8670     0.3340     3.3010 ca         1 BAY      -0.124000
     49 C49          3.8050     0.3160     1.9130 ca         1 BAY      -0.124000
     50 C50          3.4630    -0.8530     1.2480 ca         1 BAY      -0.122500
     51 N51          0.4990    -3.0210     2.2720 ns         1 BAY      -0.564900
     52 C52         -0.0260    -1.8580     2.6990 c          1 BAY       0.659600
     53 O53         -0.1380    -0.8660     1.9980 o          1 BAY      -0.587100
     54 C54         -0.5340    -1.8670     4.1360 c3         1 BAY       0.038200
     55 C55         -1.9910    -2.3820     4.2360 c3         1 BAY      -0.076200
     56 C56         -2.9550    -1.6230     3.3330 c3         1 BAY      -0.088350
     57 C57         -2.0940    -3.8860     4.0120 c3         1 BAY      -0.088350
     58 N58         -0.4110    -0.5180     4.6380 ns         1 BAY      -0.563400
     59 C59         -0.3630    -0.2240     5.9440 c          1 BAY       0.677100
     60 O60         -0.3560    -1.0690     6.8260 o          1 BAY      -0.611100
     61 C61         -0.4000     1.2700     6.2650 c3         1 BAY      -0.107200
     62 C62          0.5410     1.6360     7.4210 c3         1 BAY      -0.032100
     63 C63          1.9690     1.8650     6.9910 ca         1 BAY      -0.070800
     64 C64          2.2630     3.0560     6.3690 ca         1 BAY      -0.124500
     65 C65          3.5720     3.3900     5.9800 ca         1 BAY      -0.125500
     66 C66          4.6010     2.5260     6.2320 ca         1 BAY      -0.119000
     67 C67          4.3500     1.2840     6.8560 ca         1 BAY      -0.042500
     68 C68          5.4060     0.3740     7.1020 ca         1 BAY      -0.121500
     69 C69          5.1680    -0.8390     7.6840 ca         1 BAY      -0.126000
     70 C70          3.8520    -1.1960     8.0440 ca         1 BAY      -0.131000
     71 C71          2.8110    -0.3340     7.8260 ca         1 BAY      -0.112500
     72 C72          3.0210     0.9350     7.2300 ca         1 BAY      -0.023500
     73 C73         -1.8730     1.5700     6.5760 c3         1 BAY      -0.172600
     74 S74         -2.1980     3.3480     6.6530 s6         1 BAY       0.942000
     75 O75         -1.8870     3.8230     8.0050 o          1 BAY      -0.584300
     76 O76         -1.4880     3.9780     5.5350 o          1 BAY      -0.584300
     77 C77         -3.9990     3.5500     6.3850 c3         1 BAY      -0.095700
     78 C78         -4.2670     5.0430     6.5720 c3         1 BAY      -0.086600
     79 C79         -4.3560     3.1110     4.9710 c3         1 BAY      -0.086600
     80 C80         -4.7450     2.7300     7.4310 c3         1 BAY      -0.086600
     81 H11          3.2670     5.8170    -5.8450 hc         1 BAY       0.054756
     82 H12A         4.9290     5.4710    -6.3070 hc         1 BAY       0.054756
     83 H13A         3.6790     5.5240    -7.5440 hc         1 BAY       0.054756
     84 H21          3.4300     3.8850    -4.1420 hc         1 BAY       0.054756
     85 H22          3.9250     2.2720    -4.6830 hc         1 BAY       0.054756
     86 H23          5.0790     3.5880    -4.6830 hc         1 BAY       0.054756
     87 H31A         4.2690     3.1690    -8.3330 hc         1 BAY       0.054756
     88 H32          5.5740     3.1530    -7.1510 hc         1 BAY       0.054756
     89 H33          4.4060     1.8450    -7.1650 hc         1 BAY       0.054756
     90 H81          2.3110     1.2860    -5.6670 h1         1 BAY       0.102200
     91 H82          2.0630     1.1740    -7.4140 h1         1 BAY       0.102200
     92 H9          -0.1310     1.8310    -5.3760 hc         1 BAY       0.085700
     93 H101        -0.4800     2.5330    -7.8060 hc         1 BAY       0.071200
     94 H102        -0.3820     0.8600    -8.2560 hc         1 BAY       0.071200
     95 H12         -2.0700     3.2410    -6.0150 ha         1 BAY       0.141000
     96 H13         -4.4730     3.2850    -5.4770 ha         1 BAY       0.133500
     97 H14         -5.9590     1.4930    -6.2930 ha         1 BAY       0.131500
     98 H16         -6.2820    -0.5670    -7.5280 ha         1 BAY       0.129500
     99 H17         -5.3940    -2.4050    -8.9050 ha         1 BAY       0.130000
    100 H18         -2.9770    -2.4670    -9.4720 ha         1 BAY       0.131000
    101 H19         -1.4710    -0.7430    -8.6710 ha         1 BAY       0.148500
    102 HN2          0.3180     0.2980    -3.8910 hn         1 BAY       0.344500
    103 H24         -0.0510    -2.4940    -4.5780 h1         1 BAY       0.078200
    104 H25          2.2690    -2.1680    -5.1820 hc         1 BAY       0.067700
    105 H261         4.0280    -1.5800    -3.6320 hc         1 BAY       0.036450
    106 H262         2.8500    -0.2760    -3.6030 hc         1 BAY       0.036450
    107 H263         2.9080    -1.4390    -2.2830 hc         1 BAY       0.036450
    108 H271         2.0670    -3.8380    -2.6360 hc         1 BAY       0.036450
    109 H272         1.5400    -4.3580    -4.2380 hc         1 BAY       0.036450
    110 H273         3.2390    -4.0190    -3.9280 hc         1 BAY       0.036450
    111 HN3         -0.7270    -3.5950    -2.8200 hn         1 BAY       0.309500
    112 H31         -0.9010    -2.1510    -0.2490 h1         1 BAY       0.108200
    113 H321        -3.0770    -3.7150    -1.6910 hc         1 BAY       0.057450
    114 H322        -3.2170    -3.0170    -0.0890 hc         1 BAY       0.057450
    115 H34         -3.0710    -2.2830    -3.6900 ha         1 BAY       0.125000
    116 H35         -3.4350    -0.0640    -4.6870 ha         1 BAY       0.136000
    117 H36         -3.7030     1.9220    -3.2390 ha         1 BAY       0.134000
    118 H37         -3.5740     1.6700    -0.7770 ha         1 BAY       0.136000
    119 H38         -3.1660    -0.5410     0.2170 ha         1 BAY       0.125000
    120 H39         -1.3930    -4.2980     0.8120 h1         1 BAY       0.078700
    121 HO4         -0.5640    -5.6930    -1.4670 ho         1 BAY       0.409000
    122 H41          1.2410    -4.4040    -0.7140 h1         1 BAY       0.078700
    123 HO2          0.2910    -5.7790     1.5390 ho         1 BAY       0.409000
    124 H43          1.0000    -2.2690     0.4280 h1         1 BAY       0.108200
    125 H441         2.9570    -4.1500     1.8050 hc         1 BAY       0.057450
    126 H442         3.2000    -3.3460     0.2650 hc         1 BAY       0.057450
    127 H46          3.0800    -2.8990     3.9090 ha         1 BAY       0.125000
    128 H47          3.6450    -0.8210     5.0950 ha         1 BAY       0.136000
    129 H48          4.1190     1.2470     3.8250 ha         1 BAY       0.134000
    130 H49          4.0180     1.2150     1.3490 ha         1 BAY       0.136000
    131 H50          3.4000    -0.8530     0.1650 ha         1 BAY       0.125000
    132 HN5          0.6490    -3.7420     2.9620 hn         1 BAY       0.309500
    133 H54          0.0970    -2.5220     4.7440 h1         1 BAY       0.078200
    134 H55         -2.2840    -2.1950     5.2740 hc         1 BAY       0.067700
    135 H561        -3.9840    -1.8910     3.5760 hc         1 BAY       0.036450
    136 H562        -2.8640    -0.5420     3.4450 hc         1 BAY       0.036450
    137 H563        -2.8000    -1.8610     2.2790 hc         1 BAY       0.036450
    138 H571        -1.9090    -4.1650     2.9740 hc         1 BAY       0.036450
    139 H572        -1.3910    -4.4380     4.6390 hc         1 BAY       0.036450
    140 H573        -3.0970    -4.2330     4.2600 hc         1 BAY       0.036450
    141 HN8         -0.3970     0.2240     3.9550 hn         1 BAY       0.344500
    142 H61         -0.1190     1.8380     5.3760 hc         1 BAY       0.085700
    143 H621         0.1970     2.5640     7.8770 hc         1 BAY       0.071200
    144 H622         0.4570     0.8880     8.2080 hc         1 BAY       0.071200
    145 H64          1.4630     3.7640     6.1810 ha         1 BAY       0.141000
    146 H65          3.7620     4.3420     5.5020 ha         1 BAY       0.133500
    147 H66          5.6150     2.7760     5.9460 ha         1 BAY       0.131500
    148 H68          6.4120     0.6570     6.8140 ha         1 BAY       0.129500
    149 H69          5.9820    -1.5280     7.8650 ha         1 BAY       0.130000
    150 H70          3.6640    -2.1590     8.5000 ha         1 BAY       0.131000
    151 H71          1.8110    -0.6460     8.0910 ha         1 BAY       0.148500
    152 H731        -2.5080     1.1660     5.7850 h1         1 BAY       0.102200
    153 H732        -2.1860     1.1340     7.5250 h1         1 BAY       0.102200
    154 H781        -5.3270     5.2220     6.3880 hc         1 BAY       0.054756
    155 H782        -4.0450     5.3780     7.5840 hc         1 BAY       0.054756
    156 H783        -3.7030     5.6520     5.8660 hc         1 BAY       0.054756
    157 H791        -3.8050     3.6680     4.2140 hc         1 BAY       0.054756
    158 H792        -4.1910     2.0460     4.8090 hc         1 BAY       0.054756
    159 H793        -5.4190     3.2960     4.8140 hc         1 BAY       0.054756
    160 H801        -4.4690     3.0100     8.4460 hc         1 BAY       0.054756
    161 H802        -5.8140     2.9140     7.3150 hc         1 BAY       0.054756
    162 H803        -4.5910     1.6570     7.3090 hc         1 BAY       0.054756
@<TRIPOS>BOND
     1     1     4 1   
     2     1    81 1   
     3     1    82 1   
     4     1    83 1   
     5     2     4 1   
     6     2    84 1   
     7     2    85 1   
     8     2    86 1   
     9     3     4 1   
    10     3    87 1   
    11     3    88 1   
    12     3    89 1   
    13     4     5 1   
    14     5     6 2   
    15     5     7 2   
    16     5     8 1   
    17     8     9 1   
    18     8    90 1   
    19     8    91 1   
    20     9    10 1   
    21     9    21 1   
    22     9    92 1   
    23    10    11 1   
    24    10    93 1   
    25    10    94 1   
    26    11    12 ar  
    27    11    20 ar  
    28    12    13 ar  
    29    12    95 1   
    30    13    14 ar  
    31    13    96 1   
    32    14    15 ar  
    33    14    97 1   
    34    15    16 ar  
    35    15    20 ar  
    36    16    17 ar  
    37    16    98 1   
    38    17    18 ar  
    39    17    99 1   
    40    18    19 ar  
    41    18   100 1   
    42    19    20 ar  
    43    19   101 1   
    44    21    22 2   
    45    21    23 1   
    46    23    24 1   
    47    23   102 1   
    48    24    25 1   
    49    24    28 1   
    50    24   103 1   
    51    25    26 1   
    52    25    27 1   
    53    25   104 1   
    54    26   105 1   
    55    26   106 1   
    56    26   107 1   
    57    27   108 1   
    58    27   109 1   
    59    27   110 1   
    60    28    29 2   
    61    28    30 1   
    62    30    31 1   
    63    30   111 1   
    64    31    32 1   
    65    31    39 1   
    66    31   112 1   
    67    32    33 1   
    68    32   113 1   
    69    32   114 1   
    70    33    34 ar  
    71    33    38 ar  
    72    34    35 ar  
    73    34   115 1   
    74    35    36 ar  
    75    35   116 1   
    76    36    37 ar  
    77    36   117 1   
    78    37    38 ar  
    79    37   118 1   
    80    38   119 1   
    81    39    40 1   
    82    39    41 1   
    83    39   120 1   
    84    40   121 1   
    85    41    42 1   
    86    41    43 1   
    87    41   122 1   
    88    42   123 1   
    89    43    44 1   
    90    43    51 1   
    91    43   124 1   
    92    44    45 1   
    93    44   125 1   
    94    44   126 1   
    95    45    46 ar  
    96    45    50 ar  
    97    46    47 ar  
    98    46   127 1   
    99    47    48 ar  
   100    47   128 1   
   101    48    49 ar  
   102    48   129 1   
   103    49    50 ar  
   104    49   130 1   
   105    50   131 1   
   106    51    52 1   
   107    51   132 1   
   108    52    53 2   
   109    52    54 1   
   110    54    55 1   
   111    54    58 1   
   112    54   133 1   
   113    55    56 1   
   114    55    57 1   
   115    55   134 1   
   116    56   135 1   
   117    56   136 1   
   118    56   137 1   
   119    57   138 1   
   120    57   139 1   
   121    57   140 1   
   122    58    59 1   
   123    58   141 1   
   124    59    60 2   
   125    59    61 1   
   126    61    62 1   
   127    61    73 1   
   128    61   142 1   
   129    62    63 1   
   130    62   143 1   
   131    62   144 1   
   132    63    64 ar  
   133    63    72 ar  
   134    64    65 ar  
   135    64   145 1   
   136    65    66 ar  
   137    65   146 1   
   138    66    67 ar  
   139    66   147 1   
   140    67    68 ar  
   141    67    72 ar  
   142    68    69 ar  
   143    68   148 1   
   144    69    70 ar  
   145    69   149 1   
   146    70    71 ar  
   147    70   150 1   
   148    71    72 ar  
   149    71   151 1   
   150    73    74 1   
   151    73   152 1   
   152    73   153 1   
   153    74    75 2   
   154    74    76 2   
   155    74    77 1   
   156    77    78 1   
   157    77    79 1   
   158    77    80 1   
   159    78   154 1   
   160    78   155 1   
   161    78   156 1   
   162    79   157 1   
   163    79   158 1   
   164    79   159 1   
   165    80   160 1   
   166    80   161 1   
   167    80   162 1   
@<TRIPOS>SUBSTRUCTURE
     1 BAY         1 TEMP              0 ****  ****    0 ROOT
