@<TRIPOS>MOLECULE
BB0
   31    32     1     0     0
SMALL
No Charge or Current Charge


@<TRIPOS>ATOM
      1 NAB          3.8900     0.1370     0.0180 nh         1 BB0      -0.830400
      2 CAG         -2.6020     0.0880    -0.0270 ca         1 BB0      -0.207600
      3 CAH         -2.1290     1.4100     0.1520 ca         1 BB0      -0.065000
      4 CAI         -0.7500     1.6750     0.1950 ca         1 BB0      -0.132000
      5 CAJ          0.1800     0.6310     0.0610 ca         1 BB0       0.042000
      6 CAK         -0.2760    -0.6890    -0.1170 ca         1 BB0      -0.108000
      7 CAL         -1.6580    -0.9570    -0.1610 ca         1 BB0      -0.007000
      8 CAM          1.5590     0.9000     0.1050 ca         1 BB0      -0.225000
      9 CAN          2.4990    -0.1390    -0.0270 ca         1 BB0       0.359000
     10 CAO          2.0320    -1.4570    -0.2030 ca         1 BB0      -0.174000
     11 CAP          0.6550    -1.7330    -0.2490 ca         1 BB0      -0.044000
     12 CAQ          4.4350     1.4450    -0.4180 c3         1 BB0       0.220600
     13 CAR          4.8650    -0.8720     0.4980 c3         1 BB0       0.220600
     14 CAS         -5.1090     0.8940     0.0660 c3         1 BB0      -0.194100
     15 OAU         -4.4720    -1.3840    -0.2340 o          1 BB0      -0.538100
     16 HAH         -2.8170     2.2450     0.2600 ha         1 BB0       0.109000
     17 HAI         -0.4060     2.6970     0.3340 ha         1 BB0       0.112000
     18 HAL         -1.9950    -1.9830    -0.2990 ha         1 BB0       0.130000
     19 HAM          1.8940     1.9210     0.2540 ha         1 BB0       0.114000
     20 HAO          2.7340    -2.2770    -0.3190 ha         1 BB0       0.113000
     21 HAP          0.3170    -2.7580    -0.3890 ha         1 BB0       0.114000
     22 HAQ          4.3930     2.1730     0.4040 h1         1 BB0       0.037200
     23 HAQA         5.4790     1.3450    -0.7420 h1         1 BB0       0.037200
     24 HAQB         3.8610     1.8380    -1.2680 h1         1 BB0       0.037200
     25 HAR          5.1520    -1.5490    -0.3170 h1         1 BB0       0.037200
     26 HARA         5.7710    -0.3870     0.8840 h1         1 BB0       0.037200
     27 HARB         4.4350    -1.4660     1.3160 h1         1 BB0       0.037200
     28 HAS         -4.9120     1.6570    -0.6950 hc         1 BB0       0.059367
     29 HASA        -6.1420     0.5330     0.0120 hc         1 BB0       0.059367
     30 HASB        -4.9220     1.4310     1.0020 hc         1 BB0       0.059367
     31 CAF         -4.0830    -0.2330    -0.0780 c          1 BB0       0.587700
@<TRIPOS>BOND
     1     1     9 1   
     2     1    12 1   
     3     1    13 1   
     4     2     3 ar  
     5     2     7 ar  
     6     2    31 1   
     7     3     4 ar  
     8     3    16 1   
     9     4     5 ar  
    10     4    17 1   
    11     5     6 ar  
    12     5     8 ar  
    13     6     7 ar  
    14     6    11 ar  
    15     7    18 1   
    16     8     9 ar  
    17     8    19 1   
    18     9    10 ar  
    19    10    11 ar  
    20    10    20 1   
    21    11    21 1   
    22    12    22 1   
    23    12    23 1   
    24    12    24 1   
    25    13    25 1   
    26    13    26 1   
    27    13    27 1   
    28    14    28 1   
    29    14    29 1   
    30    14    30 1   
    31    14    31 1   
    32    15    31 2   
@<TRIPOS>SUBSTRUCTURE
     1 BB0         1 TEMP              0 ****  ****    0 ROOT
