@<TRIPOS>MOLECULE
BB0
   31    32     1     0     0
SMALL
abcg2


@<TRIPOS>ATOM
      1 NAB          3.8550     0.1320     0.0330 nh         1 BB0      -0.830400
      2 CAG         -2.5720     0.0820    -0.0110 ca         1 BB0      -0.207600
      3 CAH         -2.1000     1.4190     0.0040 ca         1 BB0      -0.065000
      4 CAI         -0.7630     1.6970     0.0130 ca         1 BB0      -0.132000
      5 CAJ          0.2010     0.6560     0.0090 ca         1 BB0       0.042000
      6 CAK         -0.2690    -0.6840    -0.0060 ca         1 BB0      -0.108000
      7 CAL         -1.6480    -0.9430    -0.0160 ca         1 BB0      -0.007000
      8 CAM          1.5800     0.9210     0.0210 ca         1 BB0      -0.225000
      9 CAN          2.5180    -0.1100     0.0170 ca         1 BB0       0.359000
     10 CAO          2.0290    -1.4550    -0.0020 ca         1 BB0      -0.174000
     11 CAP          0.6940    -1.7220    -0.0120 ca         1 BB0      -0.044000
     12 CAQ          4.3290     1.4950     0.0160 c3         1 BB0       0.220600
     13 CAR          4.8070    -0.9570     0.0120 c3         1 BB0       0.220600
     14 CAS         -5.0030     0.8950    -0.0190 c3         1 BB0      -0.194100
     15 OAU         -4.3990    -1.3990    -0.0310 o          1 BB0      -0.538100
     16 HAH         -2.8010     2.2420     0.0070 ha         1 BB0       0.109000
     17 HAI         -0.4270     2.7270     0.0250 ha         1 BB0       0.112000
     18 HAL         -1.9860    -1.9720    -0.0270 ha         1 BB0       0.130000
     19 HAM          1.8960     1.9560     0.0330 ha         1 BB0       0.114000
     20 HAO          2.7200    -2.2840    -0.0110 ha         1 BB0       0.113000
     21 HAP          0.3590    -2.7520    -0.0260 ha         1 BB0       0.114000
     22 HAQ          3.9870     2.0540     0.8920 h1         1 BB0       0.037200
     23 HAQA         5.4150     1.5040     0.0210 h1         1 BB0       0.037200
     24 HAQB         3.9930     2.0330    -0.8750 h1         1 BB0       0.037200
     25 HAR          4.7400    -1.5540    -0.9010 h1         1 BB0       0.037200
     26 HARA         5.8120    -0.5490     0.0630 h1         1 BB0       0.037200
     27 HARB         4.6830    -1.6280     0.8650 h1         1 BB0       0.037200
     28 HAS         -4.8540     1.5460    -0.8820 hc         1 BB0       0.059367
     29 HASA        -6.0210     0.5140    -0.0410 hc         1 BB0       0.059367
     30 HASB        -4.8800     1.5150     0.8700 hc         1 BB0       0.059367
     31 CAF         -4.0170    -0.2430    -0.0220 c          1 BB0       0.587700
@<TRIPOS>BOND
     1     1     9 1   
     2     1    12 1   
     3     1    13 1   
     4     2     3 ar  
     5     2     7 ar  
     6     2    31 1   
     7     3     4 ar  
     8     3    16 1   
     9     4     5 ar  
    10     4    17 1   
    11     5     6 ar  
    12     5     8 ar  
    13     6     7 ar  
    14     6    11 ar  
    15     7    18 1   
    16     8     9 ar  
    17     8    19 1   
    18     9    10 ar  
    19    10    11 ar  
    20    10    20 1   
    21    11    21 1   
    22    12    22 1   
    23    12    23 1   
    24    12    24 1   
    25    13    25 1   
    26    13    26 1   
    27    13    27 1   
    28    14    28 1   
    29    14    29 1   
    30    14    30 1   
    31    14    31 1   
    32    15    31 2   
@<TRIPOS>SUBSTRUCTURE
     1 BB0         1 TEMP              0 ****  ****    0 ROOT
