@<TRIPOS>MOLECULE
BB1
   54    53     1     0     0
SMALL
abcg2


@<TRIPOS>ATOM
      1 C2          42.9350     4.1670    14.2490 c3         1 BB1       0.144000
      2 C3          44.0340     5.2380    14.2680 c3         1 BB1      -0.162700
      3 C4          44.0800     5.9160    12.9060 c          1 BB1       0.598100
      4 O3          44.1430     5.2600    11.8650 o          1 BB1      -0.619100
      5 N2          44.0880     7.2620    12.9390 ns         1 BB1      -0.483900
      6 C5          44.4490     8.0890    11.8010 c3         1 BB1       0.039700
      7 C7          45.4160     4.6440    14.5840 c3         1 BB1      -0.069400
      8 C8          46.5530     5.6610    14.5310 c3         1 BB1      -0.080400
      9 C9          47.9080     5.0630    14.9020 c3         1 BB1      -0.073400
     10 C10         49.0410     6.0820    14.8120 c3         1 BB1      -0.088100
     11 N1          42.8400     3.4380    15.4890 n          1 BB1      -0.291300
     12 C1          43.2080     2.1830    15.7420 c          1 BB1       0.582900
     13 O1          43.1770     1.7010    16.8790 o          1 BB1      -0.619100
     14 O2          42.4530     4.2110    16.5830 oh         1 BB1      -0.457100
     15 C6          45.6470     8.9370    12.2560 c          1 BB1       0.586100
     16 N3          46.6810     9.1480    11.4190 n          1 BB1      -0.404800
     17 C16         47.7770    10.0090    11.8520 c3         1 BB1       0.084800
     18 C15         46.8860     8.5430    10.1100 c3         1 BB1       0.084800
     19 O4          45.6230     9.4140    13.3970 o          1 BB1      -0.625100
     20 C11         43.2530     8.9500    11.2790 c3         1 BB1      -0.046000
     21 C12         43.7160     9.8140    10.0990 c3         1 BB1      -0.086433
     22 C13         42.6780     9.8500    12.3780 c3         1 BB1      -0.086433
     23 C14         42.1630     7.9860    10.7930 c3         1 BB1      -0.086433
     24 H21         41.9640     4.6210    14.0390 h1         1 BB1       0.072700
     25 H22         43.1440     3.4310    13.4730 h1         1 BB1       0.072700
     26 H3          43.7860     5.9810    15.0290 hc         1 BB1       0.077700
     27 HN2         44.1370     7.7180    13.8380 hn         1 BB1       0.335500
     28 H5          44.7200     7.4020    11.0070 h1         1 BB1       0.086700
     29 H71         45.3780     4.1980    15.5810 hc         1 BB1       0.051200
     30 H72         45.6160     3.8310    13.8790 hc         1 BB1       0.051200
     31 H81         46.6230     6.0890    13.5260 hc         1 BB1       0.042700
     32 H82         46.3280     6.4970    15.2040 hc         1 BB1       0.042700
     33 H91         47.8580     4.6530    15.9160 hc         1 BB1       0.038700
     34 H92         48.1190     4.2190    14.2380 hc         1 BB1       0.038700
     35 H101        50.0030     5.6350    15.0740 hc         1 BB1       0.033367
     36 H102        49.1230     6.4850    13.7990 hc         1 BB1       0.033367
     37 H103        48.8670     6.9220    15.4890 hc         1 BB1       0.033367
     38 H1          43.5280     1.6370    14.8470 h5         1 BB1       0.040200
     39 H2          42.5590     3.5850    17.3290 ho         1 BB1       0.476000
     40 H161        48.1030    10.6160    11.0080 h1         1 BB1       0.046033
     41 H162        47.4430    10.6520    12.6590 h1         1 BB1       0.046033
     42 H163        48.6220     9.4080    12.1990 h1         1 BB1       0.046033
     43 H151        46.8560     9.3110     9.3330 h1         1 BB1       0.046033
     44 H152        47.8690     8.0680    10.0890 h1         1 BB1       0.046033
     45 H153        46.1390     7.7920     9.8870 h1         1 BB1       0.046033
     46 H121        42.8660    10.3680     9.6980 hc         1 BB1       0.039478
     47 H122        44.4750    10.5380    10.4000 hc         1 BB1       0.039478
     48 H123        44.1260     9.2010     9.2950 hc         1 BB1       0.039478
     49 H131        41.8170    10.3950    11.9840 hc         1 BB1       0.039478
     50 H132        42.3370     9.2640    13.2340 hc         1 BB1       0.039478
     51 H133        43.4100    10.5750    12.7300 hc         1 BB1       0.039478
     52 H141        41.3120     8.5540    10.4140 hc         1 BB1       0.039478
     53 H142        42.5340     7.3470     9.9900 hc         1 BB1       0.039478
     54 H143        41.8100     7.3470    11.6040 hc         1 BB1       0.039478
@<TRIPOS>BOND
     1     1     2 1   
     2     1    11 1   
     3     1    24 1   
     4     1    25 1   
     5     2     3 1   
     6     2     7 1   
     7     2    26 1   
     8     3     4 2   
     9     3     5 1   
    10     5     6 1   
    11     5    27 1   
    12     6    15 1   
    13     6    20 1   
    14     6    28 1   
    15     7     8 1   
    16     7    29 1   
    17     7    30 1   
    18     8     9 1   
    19     8    31 1   
    20     8    32 1   
    21     9    10 1   
    22     9    33 1   
    23     9    34 1   
    24    10    35 1   
    25    10    36 1   
    26    10    37 1   
    27    11    12 1   
    28    11    14 1   
    29    12    13 2   
    30    12    38 1   
    31    14    39 1   
    32    15    16 1   
    33    15    19 2   
    34    16    17 1   
    35    16    18 1   
    36    17    40 1   
    37    17    41 1   
    38    17    42 1   
    39    18    43 1   
    40    18    44 1   
    41    18    45 1   
    42    20    21 1   
    43    20    22 1   
    44    20    23 1   
    45    21    46 1   
    46    21    47 1   
    47    21    48 1   
    48    22    49 1   
    49    22    50 1   
    50    22    51 1   
    51    23    52 1   
    52    23    53 1   
    53    23    54 1   
@<TRIPOS>SUBSTRUCTURE
     1 BB1         1 TEMP              0 ****  ****    0 ROOT
