@<TRIPOS>MOLECULE
BB1
   54    53     1     0     0
SMALL
No Charge or Current Charge


@<TRIPOS>ATOM
      1 C2          42.9400     4.3900    14.1900 c3         1 BB1       0.144000
      2 C3          44.2500     5.2130    14.2340 c3         1 BB1      -0.162700
      3 C4          44.4410     5.9150    12.8810 c          1 BB1       0.598100
      4 O3          44.5670     5.2990    11.8330 o          1 BB1      -0.619100
      5 N2          44.4660     7.2900    12.9350 ns         1 BB1      -0.483900
      6 C5          44.6410     8.1940    11.7720 c3         1 BB1       0.039700
      7 C7          45.4950     4.3630    14.6200 c3         1 BB1      -0.069400
      8 C8          46.8050     5.1810    14.7110 c3         1 BB1      -0.080400
      9 C9          48.0180     4.3310    15.1460 c3         1 BB1      -0.073400
     10 C10         49.3240     5.1440    15.2330 c3         1 BB1      -0.088100
     11 N1          42.5580     3.8040    15.4930 n          1 BB1      -0.291300
     12 C1          42.7350     2.4300    15.7960 c          1 BB1       0.582900
     13 O1          42.3980     1.9370    16.8690 o          1 BB1      -0.619100
     14 O2          41.9010     4.6920    16.4300 oh         1 BB1      -0.457100
     15 C6          45.7050     9.2840    12.1540 c          1 BB1       0.586100
     16 N3          46.5340     9.8410    11.1490 n          1 BB1      -0.404800
     17 C16         47.3820    11.0130    11.4650 c3         1 BB1       0.084800
     18 C15         46.9090     9.0640     9.9440 c3         1 BB1       0.084800
     19 O4          45.7960     9.6880    13.3110 o          1 BB1      -0.625100
     20 C11         43.2610     8.7830    11.2810 c3         1 BB1      -0.046000
     21 C12         43.4400     9.6470    10.0030 c3         1 BB1      -0.086433
     22 C13         42.6080     9.6670    12.3820 c3         1 BB1      -0.086433
     23 C14         42.2770     7.6300    10.9310 c3         1 BB1      -0.086433
     24 H21         42.1210     5.0390    13.8540 h1         1 BB1       0.072700
     25 H22         43.0390     3.5860    13.4470 h1         1 BB1       0.072700
     26 H3          44.1280     5.9860    15.0020 hc         1 BB1       0.077700
     27 HN2         44.4000     7.7130    13.8540 hn         1 BB1       0.335500
     28 H5          45.0610     7.6010    10.9520 h1         1 BB1       0.086700
     29 H71         45.3190     3.8840    15.5920 hc         1 BB1       0.051200
     30 H72         45.6250     3.5540    13.8890 hc         1 BB1       0.051200
     31 H81         47.0250     5.6360    13.7370 hc         1 BB1       0.042700
     32 H82         46.6690     6.0040    15.4240 hc         1 BB1       0.042700
     33 H91         47.8140     3.8790    16.1250 hc         1 BB1       0.038700
     34 H92         48.1580     3.5060    14.4350 hc         1 BB1       0.038700
     35 H101        50.1550     4.5000    15.5440 hc         1 BB1       0.033367
     36 H102        49.5750     5.5800    14.2580 hc         1 BB1       0.033367
     37 H103        49.2270     5.9560    15.9620 hc         1 BB1       0.033367
     38 H1          43.2100     1.8620    14.9730 h5         1 BB1       0.040200
     39 H2          42.6090     4.9910    17.0480 ho         1 BB1       0.476000
     40 H161        47.7450    11.4810    10.5410 h1         1 BB1       0.046033
     41 H162        46.8020    11.7570    12.0250 h1         1 BB1       0.046033
     42 H163        48.2420    10.6960    12.0690 h1         1 BB1       0.046033
     43 H151        46.1010     9.0950     9.2050 h1         1 BB1       0.046033
     44 H152        47.8140     9.4820     9.4850 h1         1 BB1       0.046033
     45 H153        47.1150     8.0210    10.2180 h1         1 BB1       0.046033
     46 H121        42.4750    10.0390     9.6580 hc         1 BB1       0.039478
     47 H122        44.0930    10.5090    10.1840 hc         1 BB1       0.039478
     48 H123        43.8640     9.0530     9.1850 hc         1 BB1       0.039478
     49 H131        41.6330    10.0460    12.0500 hc         1 BB1       0.039478
     50 H132        42.4450     9.1000    13.3060 hc         1 BB1       0.039478
     51 H133        43.2340    10.5350    12.6210 hc         1 BB1       0.039478
     52 H141        41.3430     8.0240    10.5120 hc         1 BB1       0.039478
     53 H142        42.7170     6.9520    10.1890 hc         1 BB1       0.039478
     54 H143        42.0130     7.0410    11.8170 hc         1 BB1       0.039478
@<TRIPOS>BOND
     1     1     2 1   
     2     1    11 1   
     3     1    24 1   
     4     1    25 1   
     5     2     3 1   
     6     2     7 1   
     7     2    26 1   
     8     3     4 2   
     9     3     5 1   
    10     5     6 1   
    11     5    27 1   
    12     6    15 1   
    13     6    20 1   
    14     6    28 1   
    15     7     8 1   
    16     7    29 1   
    17     7    30 1   
    18     8     9 1   
    19     8    31 1   
    20     8    32 1   
    21     9    10 1   
    22     9    33 1   
    23     9    34 1   
    24    10    35 1   
    25    10    36 1   
    26    10    37 1   
    27    11    12 1   
    28    11    14 1   
    29    12    13 2   
    30    12    38 1   
    31    14    39 1   
    32    15    16 1   
    33    15    19 2   
    34    16    17 1   
    35    16    18 1   
    36    17    40 1   
    37    17    41 1   
    38    17    42 1   
    39    18    43 1   
    40    18    44 1   
    41    18    45 1   
    42    20    21 1   
    43    20    22 1   
    44    20    23 1   
    45    21    46 1   
    46    21    47 1   
    47    21    48 1   
    48    22    49 1   
    49    22    50 1   
    50    22    51 1   
    51    23    52 1   
    52    23    53 1   
    53    23    54 1   
@<TRIPOS>SUBSTRUCTURE
     1 BB1         1 TEMP              0 ****  ****    0 ROOT
