@<TRIPOS>MOLECULE
BB2
   62    62     1     0     0
SMALL
bcc


@<TRIPOS>ATOM
      1 C5           2.1470     1.3820     3.2010 c3         1 BB2      -0.151400
      2 C3           2.6190     0.6160     4.4170 c          1 BB2       0.668100
      3 O4           3.0700    -0.5150     4.3530 o          1 BB2      -0.574100
      4 N1           2.5240     1.3130     5.5620 ns         1 BB2      -0.458400
      5 O2           2.8010     0.7190     6.7540 oh         1 BB2      -0.382100
      6 C6           1.1030     0.5860     2.4160 c3         1 BB2      -0.128700
      7 C12          0.7860     1.3130     1.1220 c          1 BB2       0.669100
      8 O13          0.4300     2.4850     1.1150 o          1 BB2      -0.619100
      9 C7          -0.1860     0.3960     3.2230 c3         1 BB2      -0.072400
     10 C8          -1.2660    -0.3950     2.4950 c3         1 BB2      -0.076400
     11 C9          -2.5040    -0.6190     3.3540 c3         1 BB2      -0.075400
     12 C10         -3.5950    -1.4060     2.6390 c3         1 BB2      -0.074400
     13 C11         -4.8320    -1.6150     3.5010 c3         1 BB2      -0.088100
     14 N14          0.8930     0.5710     0.0100 ns         1 BB2      -0.562900
     15 C15          0.5310     1.0460    -1.3050 c3         1 BB2       0.042700
     16 C16          1.7200     1.7190    -2.0330 c3         1 BB2      -0.069700
     17 C18          2.9290     0.8080    -2.2050 c3         1 BB2      -0.088100
     18 C17          1.2950     2.3200    -3.3680 c3         1 BB2      -0.088100
     19 C19          0.0010    -0.1520    -2.0870 c          1 BB2       0.663100
     20 O20          0.5560    -1.2380    -1.9560 o          1 BB2      -0.616100
     21 N21         -1.0250     0.0260    -2.9330 n          1 BB2      -0.475800
     22 C22         -1.5040    -1.0930    -3.7560 c5         1 BB2       0.103700
     23 C23         -1.9640     1.1440    -2.9740 c5         1 BB2       0.101000
     24 C24         -3.2920     0.4490    -3.2250 c5         1 BB2      -0.101400
     25 C25         -2.9070    -0.6560    -4.2020 c5         1 BB2      -0.083400
     26 C26         -0.5640    -1.3390    -4.9270 c3         1 BB2       0.129400
     27 O27         -1.1010    -2.3990    -5.6850 oh         1 BB2      -0.599800
     28 H51          3.0280     1.5640     2.5780 hc         1 BB2       0.073700
     29 H52          1.7430     2.3600     3.4710 hc         1 BB2       0.073700
     30 HN1          2.0340     2.1930     5.6250 hn         1 BB2       0.338500
     31 HO2          3.7170     0.9470     6.9640 ho         1 BB2       0.404000
     32 H6           1.5210    -0.4000     2.1910 hc         1 BB2       0.078700
     33 H71         -0.5770     1.3770     3.5130 hc         1 BB2       0.052700
     34 H72          0.0590    -0.1210     4.1550 hc         1 BB2       0.052700
     35 H81         -0.8600    -1.3620     2.1790 hc         1 BB2       0.041700
     36 H82         -1.5620     0.1240     1.5770 hc         1 BB2       0.041700
     37 H91         -2.9050     0.3500     3.6720 hc         1 BB2       0.039200
     38 H92         -2.2210    -1.1440     4.2730 hc         1 BB2       0.039200
     39 H101        -3.1950    -2.3760     2.3280 hc         1 BB2       0.036700
     40 H102        -3.8710    -0.8840     1.7170 hc         1 BB2       0.036700
     41 H111        -5.5990    -2.1840     2.9740 hc         1 BB2       0.032033
     42 H112        -4.5870    -2.1590     4.4150 hc         1 BB2       0.032033
     43 H113        -5.2720    -0.6600     3.7960 hc         1 BB2       0.032033
     44 H14          1.2000    -0.3870     0.0850 hn         1 BB2       0.341500
     45 H15         -0.2340     1.8120    -1.1740 h1         1 BB2       0.080700
     46 H16          2.0120     2.5460    -1.3770 hc         1 BB2       0.063700
     47 H181         3.7710     1.3870    -2.5860 hc         1 BB2       0.037700
     48 H182         3.2450     0.3600    -1.2620 hc         1 BB2       0.037700
     49 H183         2.7380     0.0040    -2.9170 hc         1 BB2       0.037700
     50 H171         1.0230     1.5490    -4.0930 hc         1 BB2       0.037700
     51 H172         0.4450     2.9950    -3.2580 hc         1 BB2       0.037700
     52 H173         2.1150     2.8940    -3.8000 hc         1 BB2       0.037700
     53 H22         -1.5550    -1.9920    -3.1380 h1         1 BB2       0.083700
     54 H231        -1.9570     1.7150    -2.0490 h1         1 BB2       0.053200
     55 H232        -1.7250     1.8270    -3.7940 h1         1 BB2       0.053200
     56 H241        -3.6720     0.0290    -2.2920 hc         1 BB2       0.057200
     57 H242        -4.0450     1.1280    -3.6240 hc         1 BB2       0.057200
     58 H251        -3.6080    -1.4880    -4.2040 hc         1 BB2       0.060200
     59 H252        -2.8720    -0.2550    -5.2180 hc         1 BB2       0.060200
     60 H261        -0.4900    -0.4130    -5.5140 h1         1 BB2       0.031200
     61 H262         0.4410    -1.5770    -4.5600 h1         1 BB2       0.031200
     62 H27         -0.5100    -2.5690    -6.4240 ho         1 BB2       0.408000
@<TRIPOS>BOND
     1     1     2 1   
     2     1     6 1   
     3     1    28 1   
     4     1    29 1   
     5     2     3 2   
     6     2     4 1   
     7     4     5 1   
     8     4    30 1   
     9     5    31 1   
    10     6     7 1   
    11     6     9 1   
    12     6    32 1   
    13     7     8 2   
    14     7    14 1   
    15     9    10 1   
    16     9    33 1   
    17     9    34 1   
    18    10    11 1   
    19    10    35 1   
    20    10    36 1   
    21    11    12 1   
    22    11    37 1   
    23    11    38 1   
    24    12    13 1   
    25    12    39 1   
    26    12    40 1   
    27    13    41 1   
    28    13    42 1   
    29    13    43 1   
    30    14    15 1   
    31    14    44 1   
    32    15    16 1   
    33    15    19 1   
    34    15    45 1   
    35    16    17 1   
    36    16    18 1   
    37    16    46 1   
    38    17    47 1   
    39    17    48 1   
    40    17    49 1   
    41    18    50 1   
    42    18    51 1   
    43    18    52 1   
    44    19    20 2   
    45    19    21 1   
    46    21    22 1   
    47    21    23 1   
    48    22    25 1   
    49    22    26 1   
    50    22    53 1   
    51    23    24 1   
    52    23    54 1   
    53    23    55 1   
    54    24    25 1   
    55    24    56 1   
    56    24    57 1   
    57    25    58 1   
    58    25    59 1   
    59    26    27 1   
    60    26    60 1   
    61    26    61 1   
    62    27    62 1   
@<TRIPOS>SUBSTRUCTURE
     1 BB2         1 TEMP              0 ****  ****    0 ROOT
