@<TRIPOS>MOLECULE
BB2
   62    62     1     0     0
SMALL
No Charge or Current Charge


@<TRIPOS>ATOM
      1 C5           2.2950     1.1970     3.0250 c3         1 BB2      -0.151400
      2 C3           2.9460     0.3710     4.1420 c          1 BB2       0.601100
      3 O4           3.5380    -0.6780     3.9190 o          1 BB2      -0.574100
      4 N1           2.8560     0.9220     5.4150 ns         1 BB2      -0.391400
      5 O2           3.2020     0.1480     6.5900 oh         1 BB2      -0.421100
      6 C6           1.0100     0.5300     2.4450 c3         1 BB2      -0.128700
      7 C12          0.5550     1.2590     1.1620 c          1 BB2       0.602100
      8 O13          0.2110     2.4330     1.1540 o          1 BB2      -0.619100
      9 C7          -0.1410     0.4350     3.4870 c3         1 BB2      -0.072400
     10 C8          -1.4000    -0.2950     2.9620 c3         1 BB2      -0.076400
     11 C9          -2.5090    -0.4260     4.0290 c3         1 BB2      -0.075400
     12 C10         -3.7680    -1.1510     3.5060 c3         1 BB2      -0.074400
     13 C11         -4.8750    -1.2820     4.5690 c3         1 BB2      -0.088100
     14 N14          0.5600     0.4910     0.0200 ns         1 BB2      -0.495900
     15 C15          0.1790     0.9630    -1.3310 c3         1 BB2       0.042700
     16 C16          1.3370     1.8040    -1.9670 c3         1 BB2      -0.069700
     17 C18          2.5990     0.9590    -2.2700 c3         1 BB2      -0.088100
     18 C17          0.9050     2.6160    -3.2090 c3         1 BB2      -0.088100
     19 C19         -0.2610    -0.2620    -2.2040 c          1 BB2       0.596100
     20 O20          0.1040    -1.3990    -1.9190 o          1 BB2      -0.616100
     21 N21         -1.0220    -0.0350    -3.3720 n          1 BB2      -0.408800
     22 C22         -1.2680    -1.1280    -4.3520 c5         1 BB2       0.103700
     23 C23         -2.0970     0.9890    -3.4020 c5         1 BB2       0.101000
     24 C24         -3.2130     0.2650    -4.1910 c5         1 BB2      -0.101400
     25 C25         -2.3780    -0.4970    -5.2410 c5         1 BB2      -0.083400
     26 C26         -0.0050    -1.5130    -5.1740 c3         1 BB2       0.152600
     27 O27         -0.3090    -2.5310    -6.1420 oh         1 BB2      -0.662000
     28 H51          3.0260     1.2910     2.2130 hc         1 BB2       0.073700
     29 H52          2.0390     2.1970     3.3950 hc         1 BB2       0.073700
     30 HN1          2.2430     1.7220     5.5690 hn         1 BB2       0.338500
     31 HO2          3.8050     0.7450     7.0930 ho         1 BB2       0.443000
     32 H6           1.2760    -0.4970     2.1620 hc         1 BB2       0.078700
     33 H71         -0.4210     1.4440     3.8130 hc         1 BB2       0.052700
     34 H72          0.2190    -0.0950     4.3780 hc         1 BB2       0.052700
     35 H81         -1.1180    -1.2970     2.6140 hc         1 BB2       0.041700
     36 H82         -1.8050     0.2430     2.0960 hc         1 BB2       0.041700
     37 H91         -2.7900     0.5750     4.3800 hc         1 BB2       0.039200
     38 H92         -2.1140    -0.9700     4.8960 hc         1 BB2       0.039200
     39 H101        -3.4910    -2.1530     3.1550 hc         1 BB2       0.036700
     40 H102        -4.1670    -0.6090     2.6400 hc         1 BB2       0.036700
     41 H111        -5.7460    -1.8020     4.1520 hc         1 BB2       0.032033
     42 H112        -4.5170    -1.8520     5.4350 hc         1 BB2       0.032033
     43 H113        -5.2000    -0.2930     4.9150 hc         1 BB2       0.032033
     44 H14          0.8380    -0.4800     0.1180 hn         1 BB2       0.341500
     45 H15         -0.6930     1.6160    -1.2120 h1         1 BB2       0.080700
     46 H16          1.6330     2.5490    -1.2180 hc         1 BB2       0.063700
     47 H181         3.4150     1.6010    -2.6240 hc         1 BB2       0.037700
     48 H182         2.9510     0.4380    -1.3720 hc         1 BB2       0.037700
     49 H183         2.3970     0.2110    -3.0460 hc         1 BB2       0.037700
     50 H171         0.6890     1.9610    -4.0610 hc         1 BB2       0.037700
     51 H172         0.0140     3.2170    -2.9910 hc         1 BB2       0.037700
     52 H173         1.7040     3.3030    -3.5120 hc         1 BB2       0.037700
     53 H22         -1.6420    -2.0240    -3.8370 h1         1 BB2       0.083700
     54 H231        -2.4460     1.2770    -2.4020 h1         1 BB2       0.053200
     55 H232        -1.7620     1.8920    -3.9290 h1         1 BB2       0.053200
     56 H241        -3.7740    -0.4250    -3.5480 hc         1 BB2       0.057200
     57 H242        -3.9310     0.9610    -4.6370 hc         1 BB2       0.057200
     58 H251        -2.9630    -1.2520    -5.7790 hc         1 BB2       0.060200
     59 H252        -1.9620     0.1890    -5.9890 hc         1 BB2       0.060200
     60 H261         0.3820    -0.6140    -5.6730 h1         1 BB2       0.031200
     61 H262         0.7720    -1.8700    -4.4850 h1         1 BB2       0.031200
     62 H27          0.5260    -2.7290    -6.6220 ho         1 BB2       0.447000
@<TRIPOS>BOND
     1     1     2 1   
     2     1     6 1   
     3     1    28 1   
     4     1    29 1   
     5     2     3 2   
     6     2     4 1   
     7     4     5 1   
     8     4    30 1   
     9     5    31 1   
    10     6     7 1   
    11     6     9 1   
    12     6    32 1   
    13     7     8 2   
    14     7    14 1   
    15     9    10 1   
    16     9    33 1   
    17     9    34 1   
    18    10    11 1   
    19    10    35 1   
    20    10    36 1   
    21    11    12 1   
    22    11    37 1   
    23    11    38 1   
    24    12    13 1   
    25    12    39 1   
    26    12    40 1   
    27    13    41 1   
    28    13    42 1   
    29    13    43 1   
    30    14    15 1   
    31    14    44 1   
    32    15    16 1   
    33    15    19 1   
    34    15    45 1   
    35    16    17 1   
    36    16    18 1   
    37    16    46 1   
    38    17    47 1   
    39    17    48 1   
    40    17    49 1   
    41    18    50 1   
    42    18    51 1   
    43    18    52 1   
    44    19    20 2   
    45    19    21 1   
    46    21    22 1   
    47    21    23 1   
    48    22    25 1   
    49    22    26 1   
    50    22    53 1   
    51    23    24 1   
    52    23    54 1   
    53    23    55 1   
    54    24    25 1   
    55    24    56 1   
    56    24    57 1   
    57    25    58 1   
    58    25    59 1   
    59    26    27 1   
    60    26    60 1   
    61    26    61 1   
    62    27    62 1   
@<TRIPOS>SUBSTRUCTURE
     1 BB2         1 TEMP              0 ****  ****    0 ROOT
