@<TRIPOS>MOLECULE
BB3
   45    47     1     0     0
SMALL
No Charge or Current Charge


@<TRIPOS>ATOM
      1 Br22        -3.2380    -0.4360    -1.3610 br         1 BB3      -0.068100
      2 C13         -1.4660     0.0750    -1.8940 ca         1 BB3      -0.115400
      3 C14         -1.2590     0.9420    -2.9830 ca         1 BB3       0.223100
      4 O20         -2.3230     1.4380    -3.6790 oh         1 BB3      -0.500100
      5 C15          0.0530     1.2870    -3.3570 ca         1 BB3      -0.115400
      6 Br21         0.3790     2.4560    -4.8450 br         1 BB3      -0.068100
      7 C16          1.1500     0.7780    -2.6400 ca         1 BB3       0.014000
      8 C12         -0.3700    -0.4360    -1.1780 ca         1 BB3       0.014000
      9 C11          0.9490    -0.0730    -1.5320 ca         1 BB3      -0.215600
     10 C03          2.1480    -0.6070    -0.7870 c          1 BB3       0.631900
     11 O19          3.1920    -0.8360    -1.3830 o          1 BB3      -0.523100
     12 C9           1.9470    -1.0250     0.6190 cc         1 BB3      -0.260400
     13 C8           2.3260    -2.2540     1.1470 cd         1 BB3       0.135900
     14 C17          3.1190    -3.3900     0.5530 c3         1 BB3      -0.028200
     15 C18          4.6240    -3.2820     0.8630 c3         1 BB3      -0.085100
     16 C5           1.0630    -0.4570     1.6260 ca         1 BB3      -0.031800
     17 C6           0.3760     0.7650     1.6710 ca         1 BB3      -0.089000
     18 C4           1.0030    -1.3420     2.6750 ca         1 BB3       0.023100
     19 O7           1.7760    -2.4240     2.3940 os         1 BB3      -0.161200
     20 C3           0.2480    -1.1000     3.8270 ca         1 BB3       0.008000
     21 C2          -0.4670     0.1210     3.8950 ca         1 BB3      -0.295500
     22 C1          -0.4020     1.0470     2.8150 ca         1 BB3      -0.036000
     23 S01         -1.4620     0.4930     5.3520 sy         1 BB3       1.148600
     24 O01         -2.4970     1.4760     5.0110 o          1 BB3      -0.530500
     25 O02         -1.8170    -0.7560     6.0350 o          1 BB3      -0.530500
     26 N01         -0.3610     1.3020     6.3810 n3         1 BB3      -0.701500
     27 C01          0.1480     2.5810     5.8400 c3         1 BB3       0.167600
     28 C02          0.7290     0.4480     6.9020 c3         1 BB3       0.167600
     29 H20         -1.9700     2.0100    -4.3930 ho         1 BB3       0.491000
     30 H16          2.1590     1.0570    -2.9400 ha         1 BB3       0.147000
     31 H12         -0.5580    -1.1260    -0.3580 ha         1 BB3       0.147000
     32 H171         2.9750    -3.4270    -0.5330 hc         1 BB3       0.073200
     33 H172         2.7440    -4.3450     0.9420 hc         1 BB3       0.073200
     34 H181         5.1690    -4.1250     0.4210 hc         1 BB3       0.047033
     35 H182         5.0380    -2.3520     0.4550 hc         1 BB3       0.047033
     36 H183         4.7970    -3.2910     1.9460 hc         1 BB3       0.047033
     37 H6           0.4390     1.4790     0.8530 ha         1 BB3       0.131000
     38 H3           0.2230    -1.8300     4.6340 ha         1 BB3       0.155000
     39 H1          -0.9490     1.9870     2.8640 ha         1 BB3       0.138000
     40 H011         0.7540     3.1040     6.5920 h1         1 BB3       0.054200
     41 H012         0.7790     2.4170     4.9560 h1         1 BB3       0.054200
     42 H013        -0.6740     3.2520     5.5590 h1         1 BB3       0.054200
     43 H021         0.3330    -0.4390     7.4140 h1         1 BB3       0.054200
     44 H022         1.3930     0.1130     6.0940 h1         1 BB3       0.054200
     45 H023         1.3370     1.0000     7.6300 h1         1 BB3       0.054200
@<TRIPOS>BOND
     1     1     2 1   
     2     2     3 ar  
     3     2     8 ar  
     4     3     4 1   
     5     3     5 ar  
     6     4    29 1   
     7     5     6 1   
     8     5     7 ar  
     9     7     9 ar  
    10     7    30 1   
    11     8     9 ar  
    12     8    31 1   
    13     9    10 1   
    14    10    11 2   
    15    10    12 1   
    16    12    13 2   
    17    12    16 1   
    18    13    14 1   
    19    13    19 1   
    20    14    15 1   
    21    14    32 1   
    22    14    33 1   
    23    15    34 1   
    24    15    35 1   
    25    15    36 1   
    26    16    17 ar  
    27    16    18 ar  
    28    17    22 ar  
    29    17    37 1   
    30    18    19 1   
    31    18    20 ar  
    32    20    21 ar  
    33    20    38 1   
    34    21    22 ar  
    35    21    23 1   
    36    22    39 1   
    37    23    24 2   
    38    23    25 2   
    39    23    26 1   
    40    26    27 1   
    41    26    28 1   
    42    27    40 1   
    43    27    41 1   
    44    27    42 1   
    45    28    43 1   
    46    28    44 1   
    47    28    45 1   
@<TRIPOS>SUBSTRUCTURE
     1 BB3         1 TEMP              0 ****  ****    0 ROOT
