@<TRIPOS>MOLECULE
BB3
   45    47     1     0     0
SMALL
abcg2


@<TRIPOS>ATOM
      1 BR22        -3.2680    -0.2380    -1.8310 br         1 BB3      -0.068100
      2 C13         -1.4600     0.1890    -2.1090 ca         1 BB3      -0.115400
      3 C14         -1.1380     1.1530    -3.0720 ca         1 BB3       0.223100
      4 O20         -2.1350     1.7300    -3.7280 oh         1 BB3      -0.500100
      5 C15          0.2210     1.4350    -3.2690 ca         1 BB3      -0.115400
      6 BR21         0.7160     2.7200    -4.5570 br         1 BB3      -0.068100
      7 C16          1.2050     0.7920    -2.5450 ca         1 BB3       0.014000
      8 C12         -0.4850    -0.4430    -1.3660 ca         1 BB3       0.014000
      9 C11          0.8580    -0.1400    -1.5730 ca         1 BB3      -0.215600
     10 C03          1.9310    -0.8390    -0.8240 c          1 BB3       0.631900
     11 O19          3.0150    -1.0370    -1.3380 o          1 BB3      -0.523100
     12 C9           1.6410    -1.2810     0.5450 cc         1 BB3      -0.260400
     13 C8           2.1670    -2.4010     1.1280 cd         1 BB3       0.135900
     14 C17          3.0900    -3.4500     0.6360 c3         1 BB3      -0.028200
     15 C18          4.5430    -3.1620     1.0230 c3         1 BB3      -0.085100
     16 C5           0.8310    -0.6470     1.5560 ca         1 BB3      -0.031800
     17 C6           0.0670     0.5160     1.6540 ca         1 BB3      -0.089000
     18 C4           0.9440    -1.4690     2.6780 ca         1 BB3       0.023100
     19 O7           1.7420    -2.5260     2.3990 os         1 BB3      -0.161200
     20 C3           0.3240    -1.2300     3.8840 ca         1 BB3       0.008000
     21 C2          -0.4430    -0.0750     3.9420 ca         1 BB3      -0.295500
     22 C1          -0.5700     0.7910     2.8490 ca         1 BB3      -0.036000
     23 S01         -1.2280     0.3500     5.4710 sy         1 BB3       1.148600
     24 O01         -2.3980     1.1570     5.1700 o          1 BB3      -0.530500
     25 O02         -1.3830    -0.8690     6.2480 o          1 BB3      -0.530500
     26 N01         -0.1700     1.3180     6.2940 n3         1 BB3      -0.701500
     27 C01          0.0510     2.6530     5.7510 c3         1 BB3       0.167600
     28 C02          1.0530     0.6810     6.7700 c3         1 BB3       0.167600
     29 H20         -1.8300     2.3900    -4.3650 ho         1 BB3       0.491000
     30 H16          2.2470     1.0250    -2.7200 ha         1 BB3       0.147000
     31 H12         -0.7660    -1.1910    -0.6360 ha         1 BB3       0.147000
     32 H171         3.0030    -3.5200    -0.4470 hc         1 BB3       0.073200
     33 H172         2.7780    -4.4120     1.0470 hc         1 BB3       0.073200
     34 H181         5.1860    -3.9650     0.6640 hc         1 BB3       0.047033
     35 H182         4.8840    -2.2290     0.5770 hc         1 BB3       0.047033
     36 H183         4.6630    -3.0930     2.1030 hc         1 BB3       0.047033
     37 H6          -0.0380     1.2000     0.8240 ha         1 BB3       0.131000
     38 H3           0.4270    -1.9100     4.7200 ha         1 BB3       0.155000
     39 H1          -1.1780     1.6820     2.9270 ha         1 BB3       0.138000
     40 H011         0.5060     3.2580     6.5330 h1         1 BB3       0.054200
     41 H012         0.7240     2.6470     4.8880 h1         1 BB3       0.054200
     42 H013        -0.8890     3.1210     5.4710 h1         1 BB3       0.054200
     43 H021         0.8450    -0.2910     7.2070 h1         1 BB3       0.054200
     44 H022         1.8000     0.5690     5.9780 h1         1 BB3       0.054200
     45 H023         1.4760     1.3150     7.5480 h1         1 BB3       0.054200
@<TRIPOS>BOND
     1     1     2 1   
     2     2     3 ar  
     3     2     8 ar  
     4     3     4 1   
     5     3     5 ar  
     6     4    29 1   
     7     5     6 1   
     8     5     7 ar  
     9     7     9 ar  
    10     7    30 1   
    11     8     9 ar  
    12     8    31 1   
    13     9    10 1   
    14    10    11 2   
    15    10    12 1   
    16    12    13 2   
    17    12    16 1   
    18    13    14 1   
    19    13    19 1   
    20    14    15 1   
    21    14    32 1   
    22    14    33 1   
    23    15    34 1   
    24    15    35 1   
    25    15    36 1   
    26    16    17 ar  
    27    16    18 ar  
    28    17    22 ar  
    29    17    37 1   
    30    18    19 1   
    31    18    20 ar  
    32    20    21 ar  
    33    20    38 1   
    34    21    22 ar  
    35    21    23 1   
    36    22    39 1   
    37    23    24 2   
    38    23    25 2   
    39    23    26 1   
    40    26    27 1   
    41    26    28 1   
    42    27    40 1   
    43    27    41 1   
    44    27    42 1   
    45    28    43 1   
    46    28    44 1   
    47    28    45 1   
@<TRIPOS>SUBSTRUCTURE
     1 BB3         1 TEMP              0 ****  ****    0 ROOT
