@<TRIPOS>MOLECULE
BB4
   24    25     1     0     0
SMALL
No Charge or Current Charge


@<TRIPOS>ATOM
      1 Br           2.6090     1.6990     0.1960 br         1 BB4      -0.111100
      2 N1          -3.1780     1.8310     0.1330 ns         1 BB4      -0.387400
      3 O2          -4.4280     0.0780    -0.6610 o          1 BB4      -0.554100
      4 N3          -0.9580    -3.1770    -0.2280 na         1 BB4      -0.216700
      5 C4          -2.1770    -2.6830     0.2830 cc         1 BB4      -0.133100
      6 C5          -1.9240    -1.3550     0.6110 cd         1 BB4      -0.136400
      7 C6          -0.5480    -1.0370     0.3010 ca         1 BB4      -0.091800
      8 C7           0.1920     0.1450     0.4420 ca         1 BB4      -0.032000
      9 C8           1.5430     0.1210     0.0330 ca         1 BB4      -0.041900
     10 C9           2.1150    -1.0620    -0.4970 ca         1 BB4      -0.070000
     11 C10          1.3380    -2.2340    -0.6230 ca         1 BB4      -0.123000
     12 C11          0.0010    -2.1800    -0.2090 ca         1 BB4      -0.037200
     13 C13         -3.5960     0.5020     0.1330 c          1 BB4       0.598100
     14 O14         -3.8910     2.8390    -0.6250 oh         1 BB4      -0.431100
     15 HN1         -2.6040     2.1720     0.9030 hn         1 BB4       0.328500
     16 HN3         -0.8020    -4.1230    -0.5620 hn         1 BB4       0.355000
     17 H4          -3.0790    -3.2830     0.3640 h4         1 BB4       0.216000
     18 H7          -0.2530     1.0480     0.8510 ha         1 BB4       0.128000
     19 H9           3.1570    -1.0680    -0.8090 ha         1 BB4       0.128000
     20 H10          1.7660    -3.1480    -1.0280 ha         1 BB4       0.118000
     21 H12         -3.7280    -0.9710     1.6850 hc         1 BB4       0.062700
     22 H12A        -2.4400     0.2290     1.9440 hc         1 BB4       0.062700
     23 HO14        -3.1780     3.3040    -1.1230 ho         1 BB4       0.449000
     24 C12         -2.9360    -0.3950     1.1920 c3         1 BB4      -0.079200
@<TRIPOS>BOND
     1     1     9 1   
     2     2    13 1   
     3     2    14 1   
     4     2    15 1   
     5     3    13 2   
     6     4     5 1   
     7     4    12 1   
     8     4    16 1   
     9     5     6 2   
    10     5    17 1   
    11     6     7 1   
    12     6    24 1   
    13     7     8 ar  
    14     7    12 ar  
    15     8     9 ar  
    16     8    18 1   
    17     9    10 ar  
    18    10    11 ar  
    19    10    19 1   
    20    11    12 ar  
    21    11    20 1   
    22    13    24 1   
    23    14    23 1   
    24    21    24 1   
    25    22    24 1   
@<TRIPOS>SUBSTRUCTURE
     1 BB4         1 TEMP              0 ****  ****    0 ROOT
