@<TRIPOS>MOLECULE
BB4
   24    25     1     0     0
SMALL
bcc


@<TRIPOS>ATOM
      1 BR           2.5450     1.6520    -0.1920 br         1 BB4      -0.111100
      2 N1          -3.3840     1.9070     0.4440 ns         1 BB4      -0.454400
      3 O2          -3.5590     0.3300    -1.1670 o          1 BB4      -0.554100
      4 N3          -0.9090    -3.2220    -0.0700 na         1 BB4      -0.166400
      5 C4          -2.0790    -2.6750     0.3730 cc         1 BB4      -0.083100
      6 C5          -1.9250    -1.3330     0.5750 cd         1 BB4      -0.136400
      7 C6          -0.5700    -1.0340     0.2310 ca         1 BB4      -0.091800
      8 C7           0.1780     0.1480     0.2270 ca         1 BB4      -0.050000
      9 C8           1.4960     0.0730    -0.1710 ca         1 BB4      -0.041900
     10 C9           2.0980    -1.1320    -0.5650 ca         1 BB4      -0.088000
     11 C10          1.3690    -2.3050    -0.5660 ca         1 BB4      -0.141000
     12 C11          0.0360    -2.2450    -0.1680 ca         1 BB4      -0.037200
     13 C13         -3.3350     0.6390    -0.0120 c          1 BB4       0.665100
     14 O14         -3.9400     2.8800    -0.3320 oh         1 BB4      -0.392100
     15 HN1         -3.3840     2.1150     1.4330 hn         1 BB4       0.328500
     16 HN3         -0.7710    -4.1970    -0.2770 hn         1 BB4       0.304700
     17 H4          -2.9520    -3.2920     0.5190 h4         1 BB4       0.166000
     18 H7          -0.2690     1.0880     0.5260 ha         1 BB4       0.146000
     19 H9           3.1350    -1.1520    -0.8700 ha         1 BB4       0.146000
     20 H10          1.8290    -3.2360    -0.8690 ha         1 BB4       0.136000
     21 H12         -3.8600    -0.8980     1.3410 hc         1 BB4       0.062700
     22 H12A        -2.6010     0.1420     1.9620 hc         1 BB4       0.062700
     23 HO14        -3.2020     3.3650    -0.7220 ho         1 BB4       0.410000
     24 C12         -2.9480    -0.3660     1.0580 c3         1 BB4      -0.079200
@<TRIPOS>BOND
     1     1     9 1   
     2     2    13 1   
     3     2    14 1   
     4     2    15 1   
     5     3    13 2   
     6     4     5 1   
     7     4    12 1   
     8     4    16 1   
     9     5     6 2   
    10     5    17 1   
    11     6     7 1   
    12     6    24 1   
    13     7     8 ar  
    14     7    12 ar  
    15     8     9 ar  
    16     8    18 1   
    17     9    10 ar  
    18    10    11 ar  
    19    10    19 1   
    20    11    12 ar  
    21    11    20 1   
    22    13    24 1   
    23    14    23 1   
    24    21    24 1   
    25    22    24 1   
@<TRIPOS>SUBSTRUCTURE
     1 BB4         1 TEMP              0 ****  ****    0 ROOT
