@<TRIPOS>MOLECULE
BB6
   14    13     1     0     0
SMALL
bcc


@<TRIPOS>ATOM
      1 N            7.1890    -6.9180    30.4720 nv         1 BB6      -0.810600
      2 CA           6.3050    -7.7530    29.8080 ce         1 BB6       0.070800
      3 C            5.0130    -7.9960    30.6200 c          1 BB6       0.924800
      4 O            4.4040    -9.0650    30.4570 o          1 BB6      -0.812800
      5 CB           6.5740    -8.3060    28.6060 c2         1 BB6      -0.103600
      6 SG           8.1800    -7.9950    27.8900 sh         1 BB6      -0.476400
      7 CD           5.7070    -9.2090    27.7830 c3         1 BB6      -0.001900
      8 OXT          4.7330    -7.0870    31.4250 o          1 BB6      -0.812800
      9 H            7.8190    -6.4010    29.8760 hn         1 BB6       0.386300
     10 H1           6.6980    -6.3210    31.1220 hn         1 BB6       0.386300
     11 HG           7.7740    -7.5720    26.6840 hs         1 BB6       0.173800
     12 HD1C         5.6580    -8.8480    26.7520 hc         1 BB6       0.026033
     13 HD2C         6.1160   -10.2220    27.7390 hc         1 BB6       0.026033
     14 HD3C         4.6980    -9.2640    28.1730 hc         1 BB6       0.026033
@<TRIPOS>BOND
     1     1     2 1   
     2     1     9 1   
     3     1    10 1   
     4     2     3 1   
     5     2     5 2   
     6     3     4 1   
     7     3     8 1   
     8     5     6 1   
     9     5     7 1   
    10     6    11 1   
    11     7    12 1   
    12     7    13 1   
    13     7    14 1   
@<TRIPOS>SUBSTRUCTURE
     1 BB6         1 TEMP              0 ****  ****    0 ROOT
