@<TRIPOS>MOLECULE
BB6
   14    13     1     0     0
SMALL
No Charge or Current Charge


@<TRIPOS>ATOM
      1 N            7.1290    -6.7460    30.4560 nv         1 BB6      -0.921000
      2 CA           6.2680    -7.6890    29.8470 ce         1 BB6       0.070800
      3 C            5.0560    -8.1650    30.7070 c          1 BB6       0.714200
      4 O            4.2630    -8.9870    30.2640 o          1 BB6      -0.707500
      5 CB           6.5340    -8.1120    28.5770 c2         1 BB6      -0.103600
      6 SG           7.9510    -7.5000    27.6460 sh         1 BB6      -0.476400
      7 CD           5.7380    -9.1110    27.7470 c3         1 BB6      -0.001900
      8 OXT          4.9210    -7.6880    31.8320 o          1 BB6      -0.707500
      9 H            7.8440    -6.2980    29.8870 hn         1 BB6       0.441500
     10 H1           6.8540    -6.3160    31.3390 hn         1 BB6       0.441500
     11 HG           7.7270    -8.2170    26.5180 hs         1 BB6       0.173800
     12 HD1C         6.1740    -9.2710    26.7540 hc         1 BB6       0.026033
     13 HD2C         5.6990   -10.0900    28.2400 hc         1 BB6       0.026033
     14 HD3C         4.7100    -8.7650    27.5930 hc         1 BB6       0.026033
@<TRIPOS>BOND
     1     1     2 1   
     2     1     9 1   
     3     1    10 1   
     4     2     3 1   
     5     2     5 2   
     6     3     4 1   
     7     3     8 1   
     8     5     6 1   
     9     5     7 1   
    10     6    11 1   
    11     7    12 1   
    12     7    13 1   
    13     7    14 1   
@<TRIPOS>SUBSTRUCTURE
     1 BB6         1 TEMP              0 ****  ****    0 ROOT
