@<TRIPOS>MOLECULE
BB7
   18    17     1     0     0
SMALL
No Charge or Current Charge


@<TRIPOS>ATOM
      1 N            5.5060    -5.6180    33.8830 nv         1 BB7      -0.930000
      2 CA           5.1200    -4.4640    34.6040 ce         1 BB7       0.121800
      3 C            6.2850    -3.6330    35.2320 c          1 BB7       0.711200
      4 O            6.0560    -2.6100    35.8640 o          1 BB7      -0.700000
      5 CB           3.7920    -4.1590    34.6940 c2         1 BB7      -0.149600
      6 SG           2.5260    -5.1890    33.9150 sh         1 BB7      -0.450400
      7 CB1          3.1530    -2.9760    35.4160 c3         1 BB7       0.252800
      8 OB2          3.0260    -3.3150    36.8070 os         1 BB7      -0.434000
      9 CB3          2.4380    -2.2850    37.6140 c3         1 BB7       0.156900
     10 OXT          7.4350    -4.0290    35.0560 o          1 BB7      -0.700000
     11 HN1          4.8040    -6.1000    33.3270 hn         1 BB7       0.454500
     12 HN2          6.4920    -5.7650    33.6730 hn         1 BB7       0.454500
     13 HG           1.4550    -4.4730    34.3330 hs         1 BB7       0.159800
     14 H11          3.7460    -2.0640    35.2790 h1         1 BB7       0.015700
     15 H12          2.1620    -2.7710    34.9890 h1         1 BB7       0.015700
     16 H31          2.3730    -2.6110    38.6600 h1         1 BB7       0.006700
     17 H32          3.0420    -1.3690    37.5770 h1         1 BB7       0.006700
     18 H33          1.4250    -2.0490    37.2650 h1         1 BB7       0.006700
@<TRIPOS>BOND
     1     1     2 1   
     2     1    11 1   
     3     1    12 1   
     4     2     3 1   
     5     2     5 2   
     6     3     4 1   
     7     3    10 1   
     8     5     6 1   
     9     5     7 1   
    10     6    13 1   
    11     7     8 1   
    12     7    14 1   
    13     7    15 1   
    14     8     9 1   
    15     9    16 1   
    16     9    17 1   
    17     9    18 1   
@<TRIPOS>SUBSTRUCTURE
     1 BB7         1 TEMP              0 ****  ****    0 ROOT
