@<TRIPOS>MOLECULE
BB7
   18    17     1     0     0
SMALL
bcc


@<TRIPOS>ATOM
      1 N            5.4630    -5.6310    33.9780 nv         1 BB7      -0.819600
      2 CA           5.0610    -4.5050    34.6360 ce         1 BB7       0.121800
      3 C            6.2560    -3.6190    35.0540 c          1 BB7       0.921800
      4 O            6.2320    -3.1150    36.1860 o          1 BB7      -0.805300
      5 CB           3.7680    -4.2130    34.9160 c2         1 BB7      -0.149600
      6 SG           2.5080    -5.3960    34.4810 sh         1 BB7      -0.450400
      7 CB1          3.2820    -2.9960    35.6250 c3         1 BB7       0.229600
      8 OB2          2.8860    -3.3130    36.9460 os         1 BB7      -0.387600
      9 CB3          2.3120    -2.2170    37.6030 c3         1 BB7       0.133700
     10 OXT          7.1520    -3.5350    34.1940 o          1 BB7      -0.805300
     11 HN1          4.7600    -6.1320    33.4560 hn         1 BB7       0.399300
     12 HN2          6.3480    -5.5380    33.5060 hn         1 BB7       0.399300
     13 HG           1.8900    -4.7140    33.5040 hs         1 BB7       0.159800
     14 H11          4.0500    -2.2170    35.6310 h1         1 BB7       0.015700
     15 H12          2.4200    -2.5830    35.0780 h1         1 BB7       0.015700
     16 H31          2.0390    -2.5290    38.6120 h1         1 BB7       0.006700
     17 H32          3.0040    -1.3690    37.6840 h1         1 BB7       0.006700
     18 H33          1.4060    -1.8570    37.0990 h1         1 BB7       0.006700
@<TRIPOS>BOND
     1     1     2 1   
     2     1    11 1   
     3     1    12 1   
     4     2     3 1   
     5     2     5 2   
     6     3     4 1   
     7     3    10 1   
     8     5     6 1   
     9     5     7 1   
    10     6    13 1   
    11     7     8 1   
    12     7    14 1   
    13     7    15 1   
    14     8     9 1   
    15     9    16 1   
    16     9    17 1   
    17     9    18 1   
@<TRIPOS>SUBSTRUCTURE
     1 BB7         1 TEMP              0 ****  ****    0 ROOT
