@<TRIPOS>MOLECULE
BB8
   23    23     1     0     0
SMALL
No Charge or Current Charge


@<TRIPOS>ATOM
      1 N            9.7190    -1.5870    33.6770 n8         1 BB8      -0.987200
      2 CA          10.6210    -0.6860    32.8470 c3         1 BB8      -0.023500
      3 C           11.5200    -1.4180    31.7690 c          1 BB8       0.690000
      4 CB          11.4890     0.2720    33.7390 c3         1 BB8       0.241600
      5 OB          12.2170     1.1850    32.9080 oh         1 BB8      -0.736000
      6 CG          10.6850     1.0610    34.7810 ca         1 BB8      -0.030300
      7 CD1          9.6210     1.9040    34.3910 ca         1 BB8      -0.092500
      8 CE1          8.8980     2.6320    35.3530 ca         1 BB8      -0.126500
      9 CZ           9.2320     2.5260    36.7130 ca         1 BB8      -0.136000
     10 CE2         10.2920     1.6950    37.1110 ca         1 BB8      -0.126500
     11 CD2         11.0160     0.9670    36.1490 ca         1 BB8      -0.092500
     12 O           11.3900    -2.6260    31.6180 o          1 BB8      -0.715500
     13 OXT         12.3400    -0.7510    31.1480 o          1 BB8      -0.715500
     14 HN1          9.1780    -2.1840    33.0390 hn         1 BB8       0.384500
     15 HA2         10.3020    -2.2700    34.1770 hn         1 BB8       0.384500
     16 HA           9.9470    -0.0480    32.2590 h1         1 BB8       0.054700
     17 HB          12.2100    -0.3600    34.2760 h1         1 BB8       0.014700
     18 HC          12.4540     0.6320    32.1090 ho         1 BB8       0.518000
     19 HD1          9.3580     1.9980    33.3400 ha         1 BB8       0.112000
     20 HD2         11.8360     0.3290    36.4690 ha         1 BB8       0.112000
     21 HE1          8.0800     3.2780    35.0430 ha         1 BB8       0.091500
     22 HZ           8.6730     3.0890    37.4570 ha         1 BB8       0.089000
     23 HE2         10.5540     1.6140    38.1630 ha         1 BB8       0.091500
@<TRIPOS>BOND
     1     1     2 1   
     2     1    14 1   
     3     1    15 1   
     4     2     3 1   
     5     2     4 1   
     6     2    16 1   
     7     3    12 1   
     8     3    13 1   
     9     4     5 1   
    10     4     6 1   
    11     4    17 1   
    12     5    18 1   
    13     6     7 ar  
    14     6    11 ar  
    15     7     8 ar  
    16     7    19 1   
    17     8     9 ar  
    18     8    21 1   
    19     9    10 ar  
    20     9    22 1   
    21    10    11 ar  
    22    10    23 1   
    23    11    20 1   
@<TRIPOS>SUBSTRUCTURE
     1 BB8         1 TEMP              0 ****  ****    0 ROOT
