@<TRIPOS>MOLECULE
BB8
   23    23     1     0     0
SMALL
abcg2


@<TRIPOS>ATOM
      1 N           10.0150    -1.6050    33.9250 n8         1 BB8      -0.987200
      2 CA          10.6150    -0.7120    32.9530 c3         1 BB8      -0.023500
      3 C           11.3960    -1.4160    31.8100 c          1 BB8       0.690000
      4 CB          11.4930     0.3360    33.6760 c3         1 BB8       0.241600
      5 OB          12.0420     1.2500    32.7660 oh         1 BB8      -0.736000
      6 CG          10.7010     1.0860    34.7170 ca         1 BB8      -0.030300
      7 CD1          9.8150     2.0930    34.3410 ca         1 BB8      -0.092500
      8 CE1          9.0700     2.7750    35.2930 ca         1 BB8      -0.126500
      9 CZ           9.2050     2.4650    36.6420 ca         1 BB8      -0.136000
     10 CE2         10.0920     1.4690    37.0280 ca         1 BB8      -0.126500
     11 CD2         10.8320     0.7880    36.0690 ca         1 BB8      -0.092500
     12 O           11.2320    -2.6310    31.6500 o          1 BB8      -0.715500
     13 OXT         12.1300    -0.6700    31.1000 o          1 BB8      -0.715500
     14 HN1          9.4930    -2.3130    33.4250 hn         1 BB8       0.384500
     15 HA2         10.7520    -2.1200    34.3960 hn         1 BB8       0.384500
     16 HA           9.8010    -0.1530    32.4690 h1         1 BB8       0.054700
     17 HB          12.2890    -0.2230    34.2030 h1         1 BB8       0.014700
     18 HC          12.2080     0.6930    31.9590 ho         1 BB8       0.518000
     19 HD1          9.7030     2.3490    33.2940 ha         1 BB8       0.112000
     20 HD2         11.5270     0.0160    36.3790 ha         1 BB8       0.112000
     21 HE1          8.3850     3.5530    34.9830 ha         1 BB8       0.091500
     22 HZ           8.6260     2.9990    37.3840 ha         1 BB8       0.089000
     23 HE2         10.2090     1.2220    38.0750 ha         1 BB8       0.091500
@<TRIPOS>BOND
     1     1     2 1   
     2     1    14 1   
     3     1    15 1   
     4     2     3 1   
     5     2     4 1   
     6     2    16 1   
     7     3    12 1   
     8     3    13 1   
     9     4     5 1   
    10     4     6 1   
    11     4    17 1   
    12     5    18 1   
    13     6     7 ar  
    14     6    11 ar  
    15     7     8 ar  
    16     7    19 1   
    17     8     9 ar  
    18     8    21 1   
    19     9    10 ar  
    20     9    22 1   
    21    10    11 ar  
    22    10    23 1   
    23    11    20 1   
@<TRIPOS>SUBSTRUCTURE
     1 BB8         1 TEMP              0 ****  ****    0 ROOT
