@<TRIPOS>MOLECULE
BB9
   11    10     1     0     0
SMALL
No Charge or Current Charge


@<TRIPOS>ATOM
      1 N           11.4500    -4.7980    26.5580 nv         1 BB9      -0.945000
      2 CA          12.2210    -5.6150    27.4100 ce         1 BB9       0.086800
      3 C           11.5050    -6.2970    28.6110 c          1 BB9       0.712200
      4 O           12.1560    -7.0150    29.3610 o          1 BB9      -0.708000
      5 CB          13.5450    -5.7810    27.1740 c2         1 BB9      -0.250400
      6 SG          14.4390    -5.0130    25.8130 sh         1 BB9      -0.473400
      7 OXT         10.3060    -6.0900    28.7800 o          1 BB9      -0.708000
      8 HN1         10.5030    -4.5440    26.8390 hn         1 BB9       0.457000
      9 HN2         11.9300    -4.2170    25.8740 hn         1 BB9       0.457000
     10 HB          14.1520    -6.4110    27.8290 h4         1 BB9       0.208000
     11 HG          15.6600    -5.5310    26.0950 hs         1 BB9       0.163800
@<TRIPOS>BOND
     1     1     2 1   
     2     1     8 1   
     3     1     9 1   
     4     2     3 1   
     5     2     5 2   
     6     3     4 1   
     7     3     7 1   
     8     5     6 1   
     9     5    10 1   
    10     6    11 1   
@<TRIPOS>SUBSTRUCTURE
     1 BB9         1 TEMP              0 ****  ****    0 ROOT
