@<TRIPOS>MOLECULE
BB9
   11    10     1     0     0
SMALL
abcg2


@<TRIPOS>ATOM
      1 N           11.5390    -4.8480    26.5760 nv         1 BB9      -0.945000
      2 CA          12.2690    -5.6910    27.3520 ce         1 BB9       0.086800
      3 C           11.5180    -6.2460    28.5820 c          1 BB9       0.712200
      4 O           12.0530    -7.1780    29.2010 o          1 BB9      -0.708000
      5 CB          13.5430    -6.0640    27.1110 c2         1 BB9      -0.250400
      6 SG          14.4350    -5.5010    25.6930 sh         1 BB9      -0.473400
      7 OXT         10.4400    -5.6770    28.8350 o          1 BB9      -0.708000
      8 HN1         10.7350    -4.4490    27.0310 hn         1 BB9       0.457000
      9 HN2         12.0350    -4.2420    25.9410 hn         1 BB9       0.457000
     10 HB          14.0230    -6.7860    27.7530 h4         1 BB9       0.208000
     11 HG          15.2770    -4.6300    26.2700 hs         1 BB9       0.163800
@<TRIPOS>BOND
     1     1     2 1   
     2     1     8 1   
     3     1     9 1   
     4     2     3 1   
     5     2     5 2   
     6     3     4 1   
     7     3     7 1   
     8     5     6 1   
     9     5    10 1   
    10     6    11 1   
@<TRIPOS>SUBSTRUCTURE
     1 BB9         1 TEMP              0 ****  ****    0 ROOT
