@<TRIPOS>MOLECULE
BBA
   56    58     1     0     0
SMALL
No Charge or Current Charge


@<TRIPOS>ATOM
      1 C8          -2.1170    -0.1590    -3.3770 c3         1 BBA      -0.025100
      2 C9          -0.5930    -0.1890    -3.3980 ca         1 BBA      -0.068300
      3 C14          0.0950    -1.3850    -3.1290 ca         1 BBA      -0.113000
      4 C13          1.5000    -1.4130    -3.1140 ca         1 BBA      -0.082750
      5 C10          0.1420     0.9800    -3.6600 ca         1 BBA      -0.113000
      6 C11          1.5470     0.9570    -3.6450 ca         1 BBA      -0.082750
      7 C12          2.2490    -0.2370    -3.3550 ca         1 BBA      -0.171400
      8 C15          3.7450    -0.2730    -3.3780 ce         1 BBA       0.660800
      9 N16          4.4130     0.8460    -3.0390 nv         1 BBA      -1.054700
     10 N17          4.4190    -1.3300    -3.5690 n2         1 BBA      -0.835600
     11 C18         -0.2960     0.1610     0.3560 c3         1 BBA      -0.025100
     12 C19          0.2700     0.0470     1.7660 ca         1 BBA      -0.068300
     13 C20          0.3570    -1.2040     2.4020 ca         1 BBA      -0.113000
     14 C21          0.8760    -1.3070     3.7040 ca         1 BBA      -0.082750
     15 C24          0.7180     1.1930     2.4470 ca         1 BBA      -0.113000
     16 C23          1.2360     1.0940     3.7490 ca         1 BBA      -0.082750
     17 C22          1.3060    -0.1580     4.4080 ca         1 BBA      -0.171400
     18 C25          1.8870    -0.2860     5.7850 ce         1 BBA       0.660800
     19 N26          1.8560     0.7990     6.5870 nv         1 BBA      -1.054700
     20 N27          2.3040    -1.3830     6.2670 n2         1 BBA      -0.835600
     21 C1          -2.6600    -0.2000    -1.9270 c3         1 BBA      -0.158200
     22 C2          -4.2040    -0.2820    -1.8480 c3         1 BBA      -0.066900
     23 C3          -4.7480    -0.6910    -0.4540 c3         1 BBA      -0.076400
     24 C           -4.2450     0.1290     0.7680 c3         1 BBA      -0.076400
     25 C4          -2.7530    -0.0980     1.1340 c3         1 BBA      -0.066900
     26 C5          -1.7290     0.7570     0.3290 c3         1 BBA      -0.158200
     27 C6          -2.1870     1.0200    -1.1130 c          1 BBA       0.584100
     28 O7          -2.2800     2.1630    -1.5470 o          1 BBA      -0.525100
     29 H81         -2.4970     0.7330    -3.8920 hc         1 BBA       0.058200
     30 H82         -2.5070    -1.0200    -3.9340 hc         1 BBA       0.058200
     31 H14         -0.4610    -2.2980    -2.9250 ha         1 BBA       0.117000
     32 H13          2.0000    -2.3540    -2.8940 ha         1 BBA       0.124750
     33 H10         -0.3740     1.9130    -3.8740 ha         1 BBA       0.117000
     34 H11          2.0880     1.8740    -3.8700 ha         1 BBA       0.124750
     35 HG11         5.3720     0.6760    -2.7610 hn         1 BBA       0.464750
     36 HG12         3.8970     1.5080    -2.4720 hn         1 BBA       0.464750
     37 HG2          3.7690    -2.0670    -3.8680 hn         1 BBA       0.379400
     38 H181        -0.2940    -0.8200    -0.1340 hc         1 BBA       0.058200
     39 H182         0.3640     0.7960    -0.2500 hc         1 BBA       0.058200
     40 H20          0.0220    -2.1020     1.8880 ha         1 BBA       0.117000
     41 H21          0.9330    -2.2890     4.1710 ha         1 BBA       0.124750
     42 H24          0.6690     2.1660     1.9620 ha         1 BBA       0.117000
     43 H23          1.5930     1.9990     4.2360 ha         1 BBA       0.124750
     44 HG31         1.8190     0.6080     7.5810 hn         1 BBA       0.464750
     45 HG32         1.2500     1.5470     6.2740 hn         1 BBA       0.464750
     46 HG4          2.8420    -1.1710     7.1140 hn         1 BBA       0.379400
     47 H1          -2.2810    -1.1090    -1.4470 hc         1 BBA       0.069700
     48 H21A        -4.6380     0.6830    -2.1390 hc         1 BBA       0.047450
     49 H22         -4.5660    -1.0160    -2.5800 hc         1 BBA       0.047450
     50 H31         -5.8420    -0.6230    -0.4860 hc         1 BBA       0.042450
     51 H32         -4.5190    -1.7500    -0.2830 hc         1 BBA       0.042450
     52 H1A         -4.4430     1.1980     0.6160 hc         1 BBA       0.042450
     53 H2          -4.8490    -0.1700     1.6340 hc         1 BBA       0.042450
     54 H41         -2.6160     0.1220     2.2000 hc         1 BBA       0.047450
     55 H42         -2.5220    -1.1640     1.0180 hc         1 BBA       0.047450
     56 H5          -1.6770     1.7430     0.8080 hc         1 BBA       0.069700
@<TRIPOS>BOND
     1     1     2 1   
     2     1    21 1   
     3     1    29 1   
     4     1    30 1   
     5     2     3 ar  
     6     2     5 ar  
     7     3     4 ar  
     8     3    31 1   
     9     4     7 ar  
    10     4    32 1   
    11     5     6 ar  
    12     5    33 1   
    13     6     7 ar  
    14     6    34 1   
    15     7     8 1   
    16     8     9 1   
    17     8    10 2   
    18     9    35 1   
    19     9    36 1   
    20    10    37 1   
    21    11    12 1   
    22    11    26 1   
    23    11    38 1   
    24    11    39 1   
    25    12    13 ar  
    26    12    15 ar  
    27    13    14 ar  
    28    13    40 1   
    29    14    17 ar  
    30    14    41 1   
    31    15    16 ar  
    32    15    42 1   
    33    16    17 ar  
    34    16    43 1   
    35    17    18 1   
    36    18    19 1   
    37    18    20 2   
    38    19    44 1   
    39    19    45 1   
    40    20    46 1   
    41    21    22 1   
    42    21    27 1   
    43    21    47 1   
    44    22    23 1   
    45    22    48 1   
    46    22    49 1   
    47    23    24 1   
    48    23    50 1   
    49    23    51 1   
    50    24    25 1   
    51    24    52 1   
    52    24    53 1   
    53    25    26 1   
    54    25    54 1   
    55    25    55 1   
    56    26    27 1   
    57    26    56 1   
    58    27    28 2   
@<TRIPOS>SUBSTRUCTURE
     1 BBA         1 TEMP              0 ****  ****    0 ROOT
