@<TRIPOS>MOLECULE
BBA
   56    58     1     0     0
SMALL
abcg2


@<TRIPOS>ATOM
      1 C8          -2.0820    -0.1950    -3.2780 c3         1 BBA      -0.025100
      2 C9          -0.5840    -0.2350    -3.4030 ca         1 BBA      -0.068300
      3 C14          0.1220    -1.3810    -3.0390 ca         1 BBA      -0.113000
      4 C13          1.5030    -1.4270    -3.1250 ca         1 BBA      -0.082750
      5 C10          0.1390     0.8650    -3.8520 ca         1 BBA      -0.113000
      6 C11          1.5240     0.8270    -3.9370 ca         1 BBA      -0.082750
      7 C12          2.2230    -0.3220    -3.5760 ca         1 BBA      -0.171400
      8 C15          3.7060    -0.3990    -3.6960 ce         1 BBA       0.660800
      9 N16          4.3620     0.7790    -3.4900 nv         1 BBA      -1.054700
     10 N17          4.3560    -1.4540    -4.0100 n2         1 BBA      -0.835600
     11 C18         -0.1990     0.4230     0.4430 c3         1 BBA      -0.025100
     12 C19          0.2890     0.2230     1.8490 ca         1 BBA      -0.068300
     13 C20          0.4720    -1.0520     2.3770 ca         1 BBA      -0.113000
     14 C21          0.9020    -1.2310     3.6810 ca         1 BBA      -0.082750
     15 C24          0.5530     1.3170     2.6690 ca         1 BBA      -0.113000
     16 C23          0.9750     1.1440     3.9770 ca         1 BBA      -0.082750
     17 C22          1.1520    -0.1350     4.5030 ca         1 BBA      -0.171400
     18 C25          1.6160    -0.3530     5.9010 ce         1 BBA       0.660800
     19 N26          1.3940     0.6860     6.7590 nv         1 BBA      -1.054700
     20 N27          2.2160    -1.4460     6.1860 n2         1 BBA      -0.835600
     21 C1          -2.5440    -0.2000    -1.8180 c3         1 BBA      -0.158200
     22 C2          -4.0810    -0.2180    -1.7100 c3         1 BBA      -0.066900
     23 C3          -4.6080    -0.6810    -0.3580 c3         1 BBA      -0.076400
     24 C           -4.0940     0.0810     0.8630 c3         1 BBA      -0.076400
     25 C4          -2.6010    -0.1070     1.1480 c3         1 BBA      -0.066900
     26 C5          -1.6820     0.8510     0.3900 c3         1 BBA      -0.158200
     27 C6          -2.0420     1.0160    -1.0700 c          1 BBA       0.584100
     28 O7          -1.9380     2.0910    -1.6200 o          1 BBA      -0.525100
     29 H81         -2.4820     0.6780    -3.7950 hc         1 BBA       0.058200
     30 H82         -2.5110    -1.0740    -3.7660 hc         1 BBA       0.058200
     31 H14         -0.4120    -2.2540    -2.6830 ha         1 BBA       0.117000
     32 H13          2.0230    -2.3280    -2.8210 ha         1 BBA       0.124750
     33 H10         -0.3850     1.7640    -4.1510 ha         1 BBA       0.117000
     34 H11          2.0530     1.6950    -4.3080 ha         1 BBA       0.124750
     35 HG11         5.3670     0.7240    -3.4450 hn         1 BBA       0.464750
     36 HG12         3.9560     1.4460    -2.8560 hn         1 BBA       0.464750
     37 HG2          3.7200    -2.2120    -4.2330 hn         1 BBA       0.379400
     38 H181        -0.0610    -0.4990    -0.1290 hc         1 BBA       0.058200
     39 H182         0.4060     1.1880    -0.0500 hc         1 BBA       0.058200
     40 H20          0.2770    -1.9210     1.7580 ha         1 BBA       0.117000
     41 H21          1.0420    -2.2300     4.0720 ha         1 BBA       0.124750
     42 H24          0.4320     2.3220     2.2800 ha         1 BBA       0.117000
     43 H23          1.1880     2.0220     4.5750 ha         1 BBA       0.124750
     44 HG31         1.5620     0.5220     7.7390 hn         1 BBA       0.464750
     45 HG32         0.6130     1.2960     6.5830 hn         1 BBA       0.464750
     46 HG4          2.4540    -1.4860     7.1730 hn         1 BBA       0.379400
     47 H1          -2.1630    -1.1070    -1.3350 hc         1 BBA       0.069700
     48 H21A        -4.4720     0.7750    -1.9530 hc         1 BBA       0.047450
     49 H22         -4.4660    -0.8910    -2.4810 hc         1 BBA       0.047450
     50 H31         -5.6990    -0.6200    -0.3780 hc         1 BBA       0.042450
     51 H32         -4.3660    -1.7410    -0.2300 hc         1 BBA       0.042450
     52 H1A         -4.3270     1.1480     0.7680 hc         1 BBA       0.042450
     53 H2          -4.6560    -0.2670     1.7320 hc         1 BBA       0.042450
     54 H41         -2.4190     0.0500     2.2120 hc         1 BBA       0.047450
     55 H42         -2.3210    -1.1480     0.9560 hc         1 BBA       0.047450
     56 H5          -1.7640     1.8430     0.8450 hc         1 BBA       0.069700
@<TRIPOS>BOND
     1     1     2 1   
     2     1    21 1   
     3     1    29 1   
     4     1    30 1   
     5     2     3 ar  
     6     2     5 ar  
     7     3     4 ar  
     8     3    31 1   
     9     4     7 ar  
    10     4    32 1   
    11     5     6 ar  
    12     5    33 1   
    13     6     7 ar  
    14     6    34 1   
    15     7     8 1   
    16     8     9 1   
    17     8    10 2   
    18     9    35 1   
    19     9    36 1   
    20    10    37 1   
    21    11    12 1   
    22    11    26 1   
    23    11    38 1   
    24    11    39 1   
    25    12    13 ar  
    26    12    15 ar  
    27    13    14 ar  
    28    13    40 1   
    29    14    17 ar  
    30    14    41 1   
    31    15    16 ar  
    32    15    42 1   
    33    16    17 ar  
    34    16    43 1   
    35    17    18 1   
    36    18    19 1   
    37    18    20 2   
    38    19    44 1   
    39    19    45 1   
    40    20    46 1   
    41    21    22 1   
    42    21    27 1   
    43    21    47 1   
    44    22    23 1   
    45    22    48 1   
    46    22    49 1   
    47    23    24 1   
    48    23    50 1   
    49    23    51 1   
    50    24    25 1   
    51    24    52 1   
    52    24    53 1   
    53    25    26 1   
    54    25    54 1   
    55    25    55 1   
    56    26    27 1   
    57    26    56 1   
    58    27    28 2   
@<TRIPOS>SUBSTRUCTURE
     1 BBA         1 TEMP              0 ****  ****    0 ROOT
