@<TRIPOS>MOLECULE
BBB
   51    53     1     0     0
SMALL
No Charge or Current Charge


@<TRIPOS>ATOM
      1 OAC          7.0940     0.9460     3.2480 oh         1 BBB      -0.719000
      2 CAN          7.2420     2.2700     3.7790 c3         1 BBB       0.155600
      3 CAO          6.0630     3.1420     3.2810 c3         1 BBB       0.126600
      4 OAT          4.8930     2.2980     3.1950 os         1 BBB      -0.492000
      5 CAR          3.7070     2.9740     2.7440 c3         1 BBB       0.337000
      6 NBC          2.6050     1.9940     2.6950 n          1 BBB      -0.317000
      7 CBB          1.8720     1.7920     3.8690 c          1 BBB       0.633000
      8 OAB          2.0810     2.3920     4.9110 o          1 BBB      -0.545000
      9 NAS          0.8770     0.8740     3.7990 ns         1 BBB      -0.467500
     10 CBA          0.4920     0.1220     2.7410 c          1 BBB       0.610200
     11 OAA         -0.4300    -0.6700     2.8380 o          1 BBB      -0.524000
     12 CAY          2.2920     1.2870     1.5410 cc         1 BBB       0.320700
     13 CAZ          1.2750     0.3620     1.5100 cd         1 BBB      -0.378400
     14 CAQ          0.8790    -0.4840     0.3090 c3         1 BBB       0.050100
     15 CAW          1.4190    -1.9100     0.3780 ca         1 BBB      -0.048300
     16 CAK          0.5370    -3.0080     0.3580 ca         1 BBB      -0.126000
     17 CAH          1.0330    -4.3200     0.4280 ca         1 BBB      -0.074000
     18 CAL          2.4170    -4.5420     0.5200 ca         1 BBB      -0.141000
     19 CAM          2.8070    -2.1400     0.4700 ca         1 BBB      -0.203000
     20 CAX          3.3090    -3.4590     0.5430 ca         1 BBB       0.145100
     21 OAU          4.6570    -3.7360     0.6390 os         1 BBB      -0.342100
     22 CAP          5.6520    -2.6980     0.6730 c3         1 BBB       0.209900
     23 CAV          7.0250    -3.3460     0.7820 ca         1 BBB      -0.089300
     24 CAJ          7.6680    -3.4510     2.0320 ca         1 BBB      -0.084000
     25 CAG          8.9370    -4.0490     2.1280 ca         1 BBB      -0.116000
     26 CAE          9.5710    -4.5460     0.9770 ca         1 BBB      -0.100000
     27 CAF          8.9340    -4.4450    -0.2720 ca         1 BBB      -0.116000
     28 CAI          7.6650    -3.8470    -0.3700 ca         1 BBB      -0.084000
     29 OAD          3.0500     1.5600     0.4670 oh         1 BBB      -0.536100
     30 HAC          6.1200     0.8960     3.0690 ho         1 BBB       0.509000
     31 HAN1         7.2180     2.2440     4.8770 h1         1 BBB       0.054200
     32 HAN2         8.1950     2.7220     3.4730 h1         1 BBB       0.054200
     33 HAO1         6.3120     3.5550     2.2940 h1         1 BBB       0.042700
     34 HAO2         5.9040     3.9780     3.9750 h1         1 BBB       0.042700
     35 HAR1         3.4240     3.7840     3.4270 h2         1 BBB       0.065200
     36 HAR2         3.8450     3.4100     1.7480 h2         1 BBB       0.065200
     37 HAS          0.3550     0.7330     4.6490 hn         1 BBB       0.349500
     38 HAQ1         1.2140    -0.0220    -0.6270 hc         1 BBB       0.052200
     39 HAQ2        -0.2150    -0.5010     0.2170 hc         1 BBB       0.052200
     40 HAK         -0.5370    -2.8460     0.2920 ha         1 BBB       0.121000
     41 HAH          0.3460    -5.1630     0.4130 ha         1 BBB       0.116000
     42 HAL          2.8010    -5.5570     0.5760 ha         1 BBB       0.128000
     43 HAM          3.4800    -1.2890     0.4890 ha         1 BBB       0.103000
     44 HAP1         5.4890    -2.0340     1.5330 h1         1 BBB       0.041700
     45 HAP2         5.6090    -2.0910    -0.2410 h1         1 BBB       0.041700
     46 HAJ          7.1840    -3.0700     2.9280 ha         1 BBB       0.114000
     47 HAG          9.4280    -4.1280     3.0960 ha         1 BBB       0.113500
     48 HAE         10.5520    -5.0090     1.0520 ha         1 BBB       0.112000
     49 HAF          9.4230    -4.8310    -1.1640 ha         1 BBB       0.113500
     50 HAI          7.1780    -3.7750    -1.3390 ha         1 BBB       0.114000
     51 HAD          2.7100     0.9940    -0.2530 ho         1 BBB       0.506000
@<TRIPOS>BOND
     1     1     2 1   
     2     1    30 1   
     3     2     3 1   
     4     2    31 1   
     5     2    32 1   
     6     3     4 1   
     7     3    33 1   
     8     3    34 1   
     9     4     5 1   
    10     5     6 1   
    11     5    35 1   
    12     5    36 1   
    13     6     7 1   
    14     6    12 1   
    15     7     8 2   
    16     7     9 1   
    17     9    10 1   
    18     9    37 1   
    19    10    11 2   
    20    10    13 1   
    21    12    13 2   
    22    12    29 1   
    23    13    14 1   
    24    14    15 1   
    25    14    38 1   
    26    14    39 1   
    27    15    16 ar  
    28    15    19 ar  
    29    16    17 ar  
    30    16    40 1   
    31    17    18 ar  
    32    17    41 1   
    33    18    20 ar  
    34    18    42 1   
    35    19    20 ar  
    36    19    43 1   
    37    20    21 1   
    38    21    22 1   
    39    22    23 1   
    40    22    44 1   
    41    22    45 1   
    42    23    24 ar  
    43    23    28 ar  
    44    24    25 ar  
    45    24    46 1   
    46    25    26 ar  
    47    25    47 1   
    48    26    27 ar  
    49    26    48 1   
    50    27    28 ar  
    51    27    49 1   
    52    28    50 1   
    53    29    51 1   
@<TRIPOS>SUBSTRUCTURE
     1 BBB         1 TEMP              0 ****  ****    0 ROOT
