@<TRIPOS>MOLECULE
BBB
   51    53     1     0     0
SMALL
bcc


@<TRIPOS>ATOM
      1 OAC          6.6530     0.8750     0.9560 oh         1 BBB      -0.596800
      2 CAN          7.0250     1.1410     2.2900 c3         1 BBB       0.132400
      3 CAO          6.1380     2.1800     2.9380 c3         1 BBB       0.103400
      4 OAT          4.8360     1.6300     3.0230 os         1 BBB      -0.445600
      5 CAR          3.8040     2.5730     3.0500 c3         1 BBB       0.313800
      6 NBC          2.5620     1.8390     2.9300 n          1 BBB      -0.384000
      7 CBB          1.8610     1.5400     4.0890 c          1 BBB       0.842500
      8 OAB          2.1660     1.9880     5.1740 o          1 BBB      -0.620500
      9 NAS          0.7940     0.7120     3.9150 ns         1 BBB      -0.601500
     10 CBA          0.4070     0.0690     2.7490 c          1 BBB       0.752700
     11 OAA         -0.5380    -0.6990     2.7630 o          1 BBB      -0.599500
     12 CAY          2.2270     1.2560     1.7280 cc         1 BBB       0.320700
     13 CAZ          1.1960     0.3840     1.5890 cd         1 BBB      -0.378400
     14 CAQ          0.9020    -0.3700     0.3240 c3         1 BBB       0.050100
     15 CAW          1.4860    -1.7650     0.3650 ca         1 BBB      -0.048300
     16 CAK          0.6760    -2.8840     0.2610 ca         1 BBB      -0.144000
     17 CAH          1.2400    -4.1560     0.3270 ca         1 BBB      -0.092000
     18 CAL          2.6000    -4.3210     0.5070 ca         1 BBB      -0.159000
     19 CAM          2.8610    -1.9280     0.5380 ca         1 BBB      -0.221000
     20 CAX          3.4230    -3.1960     0.6170 ca         1 BBB       0.145100
     21 OAU          4.7400    -3.4290     0.8000 os         1 BBB      -0.318900
     22 CAP          5.6050    -2.3130     0.9610 c3         1 BBB       0.186700
     23 CAV          6.9870    -2.8410     1.1900 ca         1 BBB      -0.089300
     24 CAJ          7.4820    -2.9960     2.4800 ca         1 BBB      -0.102000
     25 CAG          8.7540    -3.5130     2.6900 ca         1 BBB      -0.134000
     26 CAE          9.5410    -3.8820     1.6080 ca         1 BBB      -0.118000
     27 CAF          9.0540    -3.7300     0.3150 ca         1 BBB      -0.134000
     28 CAI          7.7830    -3.2120     0.1100 ca         1 BBB      -0.102000
     29 OAD          3.0340     1.6340     0.7490 oh         1 BBB      -0.497100
     30 HAC          5.6950     0.7800     0.9330 ho         1 BBB       0.410000
     31 HAN1         7.0220     0.2280     2.9010 h1         1 BBB       0.054200
     32 HAN2         8.0510     1.5130     2.2780 h1         1 BBB       0.054200
     33 HAO1         6.1350     3.0950     2.3330 h1         1 BBB       0.042700
     34 HAO2         6.5210     2.4410     3.9320 h1         1 BBB       0.042700
     35 HAR1         3.7750     3.1320     3.9860 h2         1 BBB       0.065200
     36 HAR2         3.8900     3.2900     2.2300 h2         1 BBB       0.065200
     37 HAS          0.2610     0.5050     4.7500 hn         1 BBB       0.349500
     38 HAQ1         1.2710     0.1550    -0.5630 hc         1 BBB       0.052200
     39 HAQ2        -0.1770    -0.4310     0.1820 hc         1 BBB       0.052200
     40 HAK         -0.3930    -2.7690     0.1380 ha         1 BBB       0.139000
     41 HAH          0.6070    -5.0290     0.2450 ha         1 BBB       0.134000
     42 HAL          3.0340    -5.3110     0.5700 ha         1 BBB       0.146000
     43 HAM          3.4890    -1.0500     0.6120 ha         1 BBB       0.121000
     44 HAP1         5.2830    -1.7060     1.8150 h1         1 BBB       0.041700
     45 HAP2         5.5800    -1.6830     0.0650 h1         1 BBB       0.041700
     46 HAJ          6.8720    -2.7100     3.3290 ha         1 BBB       0.132000
     47 HAG          9.1300    -3.6260     3.6990 ha         1 BBB       0.131500
     48 HAE         10.5320    -4.2850     1.7710 ha         1 BBB       0.130000
     49 HAF          9.6650    -4.0110    -0.5330 ha         1 BBB       0.131500
     50 HAI          7.4100    -3.0880    -0.9000 ha         1 BBB       0.132000
     51 HAD          2.7100     1.3340    -0.1100 ho         1 BBB       0.467000
@<TRIPOS>BOND
     1     1     2 1   
     2     1    30 1   
     3     2     3 1   
     4     2    31 1   
     5     2    32 1   
     6     3     4 1   
     7     3    33 1   
     8     3    34 1   
     9     4     5 1   
    10     5     6 1   
    11     5    35 1   
    12     5    36 1   
    13     6     7 1   
    14     6    12 1   
    15     7     8 2   
    16     7     9 1   
    17     9    10 1   
    18     9    37 1   
    19    10    11 2   
    20    10    13 1   
    21    12    13 2   
    22    12    29 1   
    23    13    14 1   
    24    14    15 1   
    25    14    38 1   
    26    14    39 1   
    27    15    16 ar  
    28    15    19 ar  
    29    16    17 ar  
    30    16    40 1   
    31    17    18 ar  
    32    17    41 1   
    33    18    20 ar  
    34    18    42 1   
    35    19    20 ar  
    36    19    43 1   
    37    20    21 1   
    38    21    22 1   
    39    22    23 1   
    40    22    44 1   
    41    22    45 1   
    42    23    24 ar  
    43    23    28 ar  
    44    24    25 ar  
    45    24    46 1   
    46    25    26 ar  
    47    25    47 1   
    48    26    27 ar  
    49    26    48 1   
    50    27    28 ar  
    51    27    49 1   
    52    28    50 1   
    53    29    51 1   
@<TRIPOS>SUBSTRUCTURE
     1 BBB         1 TEMP              0 ****  ****    0 ROOT
