@<TRIPOS>MOLECULE
BBC
   28    27     1     0     0
SMALL
No Charge or Current Charge


@<TRIPOS>ATOM
      1 N           40.7080    29.0070   -16.4150 n2         1 BBC      -0.751100
      2 CA          39.5430    28.4690   -16.4800 c2         1 BBC       0.441300
      3 CB          38.2870    29.2020   -16.0720 c3         1 BBC      -0.098400
      4 SG          38.2550    29.5490   -14.2550 s4         1 BBC       0.193600
      5 C05         37.8620    27.8350   -13.6700 c3         1 BBC      -0.042100
      6 C           39.3270    27.0590   -17.0410 c3         1 BBC       0.040100
      7 O           40.5700    26.3900   -17.3540 oh         1 BBC      -0.602800
      8 C08         39.1400    27.0670   -13.2600 c3         1 BBC      -0.041400
      9 C09         38.8820    25.6000   -12.8450 c3         1 BBC      -0.077400
     10 C10         38.0150    25.4500   -11.5750 c3         1 BBC       0.150800
     11 N11         37.8450    24.0350   -11.2050 n8         1 BBC      -0.886800
     12 O12         37.0210    30.3870   -14.0050 o          1 BBC      -0.486200
     13 HN          41.3770    28.3030   -16.7700 hn         1 BBC       0.408400
     14 HB1         37.3900    28.6290   -16.3330 h1         1 BBC       0.093200
     15 HB2         38.2420    30.1670   -16.5900 h1         1 BBC       0.093200
     16 H051        37.3220    27.3030   -14.4620 h1         1 BBC       0.080700
     17 H052        37.1960    27.9360   -12.8040 h1         1 BBC       0.080700
     18 H1          38.7070    27.1340   -17.9450 h1         1 BBC       0.038700
     19 H2          38.7600    26.4680   -16.3100 h1         1 BBC       0.038700
     20 HO          40.3480    25.5030   -17.7160 ho         1 BBC       0.421000
     21 H081        39.6300    27.5970   -12.4340 hc         1 BBC       0.041200
     22 H082        39.8510    27.0680   -14.0940 hc         1 BBC       0.041200
     23 H091        39.8500    25.1130   -12.6750 hc         1 BBC       0.047200
     24 H092        38.4030    25.0700   -13.6780 hc         1 BBC       0.047200
     25 H101        37.0210    25.8860   -11.7440 h1         1 BBC       0.027200
     26 H102        38.4910    25.9780   -10.7370 h1         1 BBC       0.027200
     27 H111        38.7610    23.6380   -10.9710 hn         1 BBC       0.336800
     28 H112        37.3130    23.9790   -10.3300 hn         1 BBC       0.336800
@<TRIPOS>BOND
     1     1     2 2   
     2     1    13 1   
     3     2     3 1   
     4     2     6 1   
     5     3     4 1   
     6     3    14 1   
     7     3    15 1   
     8     4     5 1   
     9     4    12 2   
    10     5     8 1   
    11     5    16 1   
    12     5    17 1   
    13     6     7 1   
    14     6    18 1   
    15     6    19 1   
    16     7    20 1   
    17     8     9 1   
    18     8    21 1   
    19     8    22 1   
    20     9    10 1   
    21     9    23 1   
    22     9    24 1   
    23    10    11 1   
    24    10    25 1   
    25    10    26 1   
    26    11    27 1   
    27    11    28 1   
@<TRIPOS>SUBSTRUCTURE
     1 BBC         1 TEMP              0 ****  ****    0 ROOT
