@<TRIPOS>MOLECULE
BBC
   28    27     1     0     0
SMALL
bcc


@<TRIPOS>ATOM
      1 N           40.6670    28.7690   -15.6470 n2         1 BBC      -0.751100
      2 CA          39.6810    28.3410   -16.3100 c2         1 BBC       0.441300
      3 CB          38.2970    28.8540   -16.0280 c3         1 BBC      -0.098400
      4 SG          38.0470    29.3550   -14.2920 s4         1 BBC       0.193600
      5 C05         37.5870    27.7370   -13.6000 c3         1 BBC      -0.042100
      6 C           39.7400    27.3310   -17.4230 c3         1 BBC       0.040100
      7 O           41.0710    26.9980   -17.6870 oh         1 BBC      -0.602800
      8 C08         38.6810    26.6820   -13.6390 c3         1 BBC      -0.041400
      9 C09         38.3180    25.4320   -12.8400 c3         1 BBC      -0.077400
     10 C10         38.2890    25.6470   -11.3330 c3         1 BBC       0.150800
     11 N11         38.0000    24.3970   -10.6470 n8         1 BBC      -0.886800
     12 O12         36.7650    30.1570   -14.2870 o          1 BBC      -0.486200
     13 HN          41.5290    28.3380   -15.9750 hn         1 BBC       0.408400
     14 HB1         37.5180    28.1410   -16.3120 h1         1 BBC       0.093200
     15 HB2         38.1250    29.7690   -16.6020 h1         1 BBC       0.093200
     16 H051        36.6900    27.4140   -14.1340 h1         1 BBC       0.080700
     17 H052        37.2990    27.9800   -12.5740 h1         1 BBC       0.080700
     18 H1          39.2260    27.7560   -18.2970 h1         1 BBC       0.038700
     19 H2          39.1390    26.4640   -17.1100 h1         1 BBC       0.038700
     20 HO          41.0880    26.2850   -18.3320 ho         1 BBC       0.421000
     21 H081        39.6200    27.0980   -13.2620 hc         1 BBC       0.041200
     22 H082        38.8660    26.3850   -14.6720 hc         1 BBC       0.041200
     23 H091        39.0560    24.6580   -13.0690 hc         1 BBC       0.047200
     24 H092        37.3500    25.0430   -13.1700 hc         1 BBC       0.047200
     25 H101        37.5040    26.3610   -11.0720 h1         1 BBC       0.027200
     26 H102        39.2390    26.1110   -11.0270 h1         1 BBC       0.027200
     27 H111        38.7760    23.7590   -10.7760 hn         1 BBC       0.336800
     28 H112        37.9460    24.5620    -9.6500 hn         1 BBC       0.336800
@<TRIPOS>BOND
     1     1     2 2   
     2     1    13 1   
     3     2     3 1   
     4     2     6 1   
     5     3     4 1   
     6     3    14 1   
     7     3    15 1   
     8     4     5 1   
     9     4    12 2   
    10     5     8 1   
    11     5    16 1   
    12     5    17 1   
    13     6     7 1   
    14     6    18 1   
    15     6    19 1   
    16     7    20 1   
    17     8     9 1   
    18     8    21 1   
    19     8    22 1   
    20     9    10 1   
    21     9    23 1   
    22     9    24 1   
    23    10    11 1   
    24    10    25 1   
    25    10    26 1   
    26    11    27 1   
    27    11    28 1   
@<TRIPOS>SUBSTRUCTURE
     1 BBC         1 TEMP              0 ****  ****    0 ROOT
