@<TRIPOS>MOLECULE
BBE
   48    50     1     0     0
SMALL
abcg2


@<TRIPOS>ATOM
      1 CAY         -4.4410    -0.3660    -0.8030 ca         1 BBE      -0.099000
      2 CAZ         -5.6290     0.1540    -1.2980 ca         1 BBE      -0.107000
      3 CBA         -6.4500     0.9250    -0.4850 ca         1 BBE      -0.098000
      4 CAX         -6.0750     1.1760     0.8270 ca         1 BBE      -0.107000
      5 CAW         -4.8840     0.6600     1.3210 ca         1 BBE      -0.099000
      6 CAV         -4.0590    -0.1150     0.5120 ca         1 BBE      -0.131300
      7 CAU         -2.7920    -0.6970     1.0900 c3         1 BBE       0.132300
      8 NAN         -1.6690    -0.6990     0.1570 n          1 BBE      -0.334000
      9 CAO         -1.0000     0.4690    -0.1230 cc         1 BBE       0.412600
     10 NAP         -1.4670     1.5970     0.4110 nv         1 BBE      -0.941000
     11 CAM         -1.2860    -1.9130    -0.3970 c          1 BBE       0.627000
     12 OAL         -1.8930    -2.9410    -0.1790 o          1 BBE      -0.554000
     13 NAD         -0.1930    -1.8690    -1.2020 ns         1 BBE      -0.466500
     14 CAE          0.5750    -0.7550    -1.5300 c          1 BBE       0.605200
     15 OAA          1.5050    -0.8700    -2.3100 o          1 BBE      -0.541000
     16 CAF          0.1420     0.4520    -0.9070 cd         1 BBE      -0.272200
     17 NAG          0.7880     1.6760    -1.1890 nh         1 BBE      -0.573300
     18 CAB          0.8650     2.1350    -2.5760 c3         1 BBE       0.195100
     19 SAH          2.0490     2.0710    -0.1690 sy         1 BBE       1.149600
     20 OAQ          2.5840     3.3370    -0.6450 o          1 BBE      -0.547500
     21 OAC          1.5400     1.9760     1.1890 o          1 BBE      -0.547500
     22 CAI          3.2770     0.8180    -0.3760 ca         1 BBE      -0.276500
     23 CAJ          4.2210     0.9570    -1.3850 ca         1 BBE      -0.010000
     24 CAK          5.1300    -0.0690    -1.5770 ca         1 BBE      -0.122000
     25 CAT          5.0870    -1.2040    -0.7770 ca         1 BBE      -0.053000
     26 CAS          4.1460    -1.3380     0.2390 ca         1 BBE      -0.095300
     27 CAR          3.2360    -0.3030     0.4370 ca         1 BBE      -0.012000
     28 CAL          4.1100    -2.5540     1.1170 c3         1 BBE      -0.046800
     29 HAY         -3.8170    -0.9660    -1.4530 ha         1 BBE       0.118500
     30 HAZ         -5.9130    -0.0450    -2.3240 ha         1 BBE       0.119500
     31 HBA         -7.3740     1.3310    -0.8740 ha         1 BBE       0.119000
     32 HAX         -6.7040     1.7800     1.4670 ha         1 BBE       0.119500
     33 HAW         -4.5940     0.8650     2.3450 ha         1 BBE       0.118500
     34 HAU1        -2.4950    -0.1600     1.9920 h1         1 BBE       0.086200
     35 HAU2        -2.9620    -1.7280     1.3920 h1         1 BBE       0.086200
     36 HAP1        -2.4100     1.6850     0.7490 hn         1 BBE       0.511000
     37 HAP2        -1.0090     2.4550     0.1520 hn         1 BBE       0.511000
     38 HAD          0.0730    -2.7470    -1.6290 hn         1 BBE       0.347500
     39 HAB1         0.9260     3.2190    -2.6140 h1         1 BBE       0.052700
     40 HAB2         1.7010     1.7030    -3.1260 h1         1 BBE       0.052700
     41 HAB3        -0.0590     1.8330    -3.0640 h1         1 BBE       0.052700
     42 HAJ          4.2520     1.8410    -2.0060 ha         1 BBE       0.131000
     43 HAR          2.4990    -0.3840     1.2260 ha         1 BBE       0.130000
     44 HAK          5.8780     0.0150    -2.3540 ha         1 BBE       0.116000
     45 HAT          5.8050    -1.9980    -0.9450 ha         1 BBE       0.111000
     46 HAL1         4.4410    -2.3160     2.1290 hc         1 BBE       0.043033
     47 HAL2         3.1000    -2.9560     1.1960 hc         1 BBE       0.043033
     48 HAL3         4.7570    -3.3420     0.7340 hc         1 BBE       0.043033
@<TRIPOS>BOND
     1     1     2 ar  
     2     1     6 ar  
     3     1    29 1   
     4     2     3 ar  
     5     2    30 1   
     6     3     4 ar  
     7     3    31 1   
     8     4     5 ar  
     9     4    32 1   
    10     5     6 ar  
    11     5    33 1   
    12     6     7 1   
    13     7     8 1   
    14     7    34 1   
    15     7    35 1   
    16     8     9 1   
    17     8    11 1   
    18     9    10 1   
    19     9    16 2   
    20    10    36 1   
    21    10    37 1   
    22    11    12 2   
    23    11    13 1   
    24    13    14 1   
    25    13    38 1   
    26    14    15 2   
    27    14    16 1   
    28    16    17 1   
    29    17    18 1   
    30    17    19 1   
    31    18    39 1   
    32    18    40 1   
    33    18    41 1   
    34    19    20 2   
    35    19    21 2   
    36    19    22 1   
    37    22    23 ar  
    38    22    27 ar  
    39    23    24 ar  
    40    23    42 1   
    41    24    25 ar  
    42    24    44 1   
    43    25    26 ar  
    44    25    45 1   
    45    26    27 ar  
    46    26    28 1   
    47    27    43 1   
    48    28    46 1   
    49    28    47 1   
    50    28    48 1   
@<TRIPOS>SUBSTRUCTURE
     1 BBE         1 TEMP              0 ****  ****    0 ROOT
