@<TRIPOS>MOLECULE
BBE
   48    50     1     0     0
SMALL
No Charge or Current Charge


@<TRIPOS>ATOM
      1 CAY         -4.0360    -0.7990    -0.6430 ca         1 BBE      -0.099000
      2 CAZ         -5.3180    -0.2290    -0.5610 ca         1 BBE      -0.107000
      3 CBA         -5.7530     0.3560     0.6400 ca         1 BBE      -0.098000
      4 CAX         -4.9050     0.3680     1.7600 ca         1 BBE      -0.107000
      5 CAW         -3.6230    -0.2020     1.6800 ca         1 BBE      -0.099000
      6 CAV         -3.1780    -0.7850     0.4760 ca         1 BBE      -0.131300
      7 CAU         -1.7820    -1.3960     0.3860 c3         1 BBE       0.132300
      8 NAN         -0.9820    -0.9110    -0.7770 n          1 BBE      -0.334000
      9 CAO         -0.4610     0.3780    -0.8250 cc         1 BBE       0.412600
     10 NAP         -0.8150     1.2160     0.1780 nv         1 BBE      -0.941000
     11 CAM         -0.7220    -1.8140    -1.8190 c          1 BBE       0.627000
     12 OAL         -1.1580    -2.9530    -1.8550 o          1 BBE      -0.554000
     13 NAD          0.0590    -1.3620    -2.8250 ns         1 BBE      -0.466500
     14 CAE          0.6420    -0.1500    -2.9610 c          1 BBE       0.605200
     15 OAA          1.3460     0.0980    -3.9280 o          1 BBE      -0.541000
     16 CAF          0.3530     0.8060    -1.8570 cd         1 BBE      -0.272200
     17 NAG          0.9240     2.1190    -1.8370 nh         1 BBE      -0.573300
     18 CAB          0.6890     3.0420    -2.9630 c3         1 BBE       0.195100
     19 SAH          2.1870     2.5860    -0.7640 sy         1 BBE       1.149600
     20 OAQ          3.2080     3.2810    -1.5600 o          1 BBE      -0.547500
     21 OAC          1.5430     3.2270     0.3900 o          1 BBE      -0.547500
     22 CAI          2.8170     0.9630    -0.2850 ca         1 BBE      -0.276500
     23 CAJ          3.7090     0.2810    -1.1360 ca         1 BBE      -0.010000
     24 CAK          4.1600    -1.0050    -0.7930 ca         1 BBE      -0.122000
     25 CAT          3.7190    -1.6160     0.3930 ca         1 BBE      -0.053000
     26 CAS          2.8230    -0.9430     1.2460 ca         1 BBE      -0.095300
     27 CAR          2.3790     0.3500     0.9070 ca         1 BBE      -0.012000
     28 CAL          2.3300    -1.6050     2.5230 c3         1 BBE      -0.046800
     29 HAY         -3.7100    -1.2510    -1.5780 ha         1 BBE       0.118500
     30 HAZ         -5.9750    -0.2420    -1.4290 ha         1 BBE       0.119500
     31 HBA         -6.7460     0.7970     0.7030 ha         1 BBE       0.119000
     32 HAX         -5.2430     0.8180     2.6910 ha         1 BBE       0.119500
     33 HAW         -2.9780    -0.1890     2.5560 ha         1 BBE       0.118500
     34 HAU1        -1.2220    -1.1730     1.3050 h1         1 BBE       0.086200
     35 HAU2        -1.8840    -2.4880     0.3640 h1         1 BBE       0.086200
     36 HAP1        -1.7400     1.0970     0.5740 hn         1 BBE       0.511000
     37 HAP2        -0.5030     2.1760     0.0670 hn         1 BBE       0.511000
     38 HAD          0.2410    -2.0200    -3.5640 hn         1 BBE       0.347500
     39 HAB1         0.6240     4.0790    -2.6110 h1         1 BBE       0.052700
     40 HAB2         1.5040     2.9700    -3.6960 h1         1 BBE       0.052700
     41 HAB3        -0.2520     2.7940    -3.4700 h1         1 BBE       0.052700
     42 HAJ          4.0420     0.7360    -2.0680 ha         1 BBE       0.131000
     43 HAR          1.6810     0.8650     1.5640 ha         1 BBE       0.130000
     44 HAK          4.8470    -1.5310    -1.4510 ha         1 BBE       0.116000
     45 HAT          4.0700    -2.6130     0.6470 ha         1 BBE       0.111000
     46 HAL1         2.9140    -1.2690     3.3880 hc         1 BBE       0.043033
     47 HAL2         1.2770    -1.3640     2.7150 hc         1 BBE       0.043033
     48 HAL3         2.4110    -2.6970     2.4680 hc         1 BBE       0.043033
@<TRIPOS>BOND
     1     1     2 ar  
     2     1     6 ar  
     3     1    29 1   
     4     2     3 ar  
     5     2    30 1   
     6     3     4 ar  
     7     3    31 1   
     8     4     5 ar  
     9     4    32 1   
    10     5     6 ar  
    11     5    33 1   
    12     6     7 1   
    13     7     8 1   
    14     7    34 1   
    15     7    35 1   
    16     8     9 1   
    17     8    11 1   
    18     9    10 1   
    19     9    16 2   
    20    10    36 1   
    21    10    37 1   
    22    11    12 2   
    23    11    13 1   
    24    13    14 1   
    25    13    38 1   
    26    14    15 2   
    27    14    16 1   
    28    16    17 1   
    29    17    18 1   
    30    17    19 1   
    31    18    39 1   
    32    18    40 1   
    33    18    41 1   
    34    19    20 2   
    35    19    21 2   
    36    19    22 1   
    37    22    23 ar  
    38    22    27 ar  
    39    23    24 ar  
    40    23    42 1   
    41    24    25 ar  
    42    24    44 1   
    43    25    26 ar  
    44    25    45 1   
    45    26    27 ar  
    46    26    28 1   
    47    27    43 1   
    48    28    46 1   
    49    28    47 1   
    50    28    48 1   
@<TRIPOS>SUBSTRUCTURE
     1 BBE         1 TEMP              0 ****  ****    0 ROOT
