@<TRIPOS>MOLECULE
BBF
   12    12     1     0     0
SMALL
bcc


@<TRIPOS>ATOM
      1 F6           0.4800    -2.3390    -0.0710 f          1 BBF      -0.090900
      2 C6          -0.1710    -1.1860    -0.0560 ca         1 BBF       0.163900
      3 C1           0.5250     0.0110    -0.0340 ca         1 BBF      -0.109900
      4 BR1          2.3850     0.0220    -0.0250 br         1 BBF      -0.002100
      5 C5          -1.5530    -1.1980    -0.0630 ca         1 BBF       0.062900
      6 F5          -2.2110    -2.3490    -0.0850 f          1 BBF      -0.094900
      7 C4          -2.2500    -0.0050    -0.0470 ca         1 BBF       0.120900
      8 F4          -3.5740    -0.0120    -0.0540 f          1 BBF      -0.090900
      9 C3          -1.5670     1.1970    -0.0250 ca         1 BBF       0.062900
     10 F3          -2.2390     2.3400    -0.0090 f          1 BBF      -0.094900
     11 C2          -0.1850     1.2010    -0.0180 ca         1 BBF       0.163900
     12 F2           0.4530     2.3610     0.0040 f          1 BBF      -0.090900
@<TRIPOS>BOND
     1     1     2 1   
     2     2     3 ar  
     3     2     5 ar  
     4     3     4 1   
     5     3    11 ar  
     6     5     6 1   
     7     5     7 ar  
     8     7     8 1   
     9     7     9 ar  
    10     9    10 1   
    11     9    11 ar  
    12    11    12 1   
@<TRIPOS>SUBSTRUCTURE
     1 BBF         1 TEMP              0 ****  ****    0 ROOT
