@<TRIPOS>MOLECULE
BBF
   12    12     1     0     0
SMALL
No Charge or Current Charge


@<TRIPOS>ATOM
      1 F6           0.5190    -2.3790    -0.0720 f          1 BBF      -0.126000
      2 C6          -0.1620    -1.2100    -0.0570 ca         1 BBF       0.199000
      3 C1           0.5400     0.0110    -0.0340 ca         1 BBF      -0.109900
      4 Br1          2.4610     0.0220    -0.0240 br         1 BBF      -0.002100
      5 C5          -1.5700    -1.2200    -0.0630 ca         1 BBF       0.098000
      6 F5          -2.2410    -2.3970    -0.0860 f          1 BBF      -0.130000
      7 C4          -2.2800    -0.0050    -0.0470 ca         1 BBF       0.156000
      8 F4          -3.6340    -0.0130    -0.0540 f          1 BBF      -0.126000
      9 C3          -1.5840     1.2180    -0.0240 ca         1 BBF       0.098000
     10 F3          -2.2690     2.3870    -0.0090 f          1 BBF      -0.130000
     11 C2          -0.1760     1.2250    -0.0180 ca         1 BBF       0.199000
     12 F2           0.4910     2.4020     0.0050 f          1 BBF      -0.126000
@<TRIPOS>BOND
     1     1     2 1   
     2     2     3 ar  
     3     2     5 ar  
     4     3     4 1   
     5     3    11 ar  
     6     5     6 1   
     7     5     7 ar  
     8     7     8 1   
     9     7     9 ar  
    10     9    10 1   
    11     9    11 ar  
    12    11    12 1   
@<TRIPOS>SUBSTRUCTURE
     1 BBF         1 TEMP              0 ****  ****    0 ROOT
