@<TRIPOS>MOLECULE
BBH
   50    52     1     0     0
SMALL
abcg2


@<TRIPOS>ATOM
      1 C1           2.9390    47.7170    54.3390 ca         1 BBH      -0.348500
      2 C2           3.4270    48.1240    55.5770 ca         1 BBH       0.032000
      3 C3           2.7440    47.7950    56.7370 ca         1 BBH      -0.199000
      4 C4           1.5540    47.0610    56.6560 ca         1 BBH       0.199100
      5 C5           1.0690    46.6540    55.4060 ca         1 BBH      -0.199000
      6 C6           1.7600    46.9790    54.2520 ca         1 BBH       0.032000
      7 O7           0.8120    46.7030    57.7220 os         1 BBH      -0.342100
      8 C8           1.2440    47.1060    59.0270 c3         1 BBH       0.145900
      9 S9           3.7810    48.2170    52.8760 sy         1 BBH       1.225600
     10 O10          3.0870    47.6290    51.7540 o          1 BBH      -0.549500
     11 O11          5.1980    47.9800    53.0260 o          1 BBH      -0.549500
     12 N12          3.5830    49.8500    52.8500 n3         1 BBH      -0.804500
     13 C13          2.2760    50.3950    52.4620 c6         1 BBH       0.161500
     14 C14          2.4520    51.8370    51.9640 c6         1 BBH      -0.164400
     15 C15          3.6490    52.0080    51.0480 c          1 BBH       0.566000
     16 N16          4.7760    51.4350    51.5280 n          1 BBH      -0.428800
     17 C17          4.7080    50.7710    52.8230 c6         1 BBH       0.403200
     18 O18          3.5880    52.6230    49.9860 o          1 BBH      -0.546000
     19 C            1.3270    50.3780    53.6700 c          1 BBH       0.581100
     20 NA           0.1980    49.6830    53.4540 ns         1 BBH      -0.385400
     21 OA          -0.7380    49.5220    54.4560 oh         1 BBH      -0.408100
     22 OB           1.6000    50.9440    54.7180 o          1 BBH      -0.560100
     23 C7           6.0590    51.5360    50.8460 c3         1 BBH       0.148300
     24 C9           7.4630    54.6310    52.5630 ca         1 BBH      -0.110500
     25 C10          6.5790    53.7460    51.9580 ca         1 BBH      -0.097000
     26 C11          7.0130    52.4920    51.5280 ca         1 BBH      -0.117300
     27 C12          8.3470    52.1370    51.7200 ca         1 BBH      -0.097000
     28 C16          9.2360    53.0230    52.3220 ca         1 BBH      -0.110500
     29 C18          8.7970    54.2720    52.7450 ca         1 BBH      -0.105000
     30 HC21         4.3340    48.7100    55.6400 ha         1 BBH       0.134000
     31 HC31         3.1340    48.1200    57.6890 ha         1 BBH       0.132000
     32 HC51         0.1540    46.0780    55.3590 ha         1 BBH       0.132000
     33 HC61         1.3830    46.6730    53.2870 ha         1 BBH       0.134000
     34 HC81         0.5010    46.7140    59.7160 h1         1 BBH       0.051033
     35 HC82         2.2230    46.6830    59.2590 h1         1 BBH       0.051033
     36 HC83         1.2830    48.1940    59.1030 h1         1 BBH       0.051033
     37 H131         1.8720    49.7880    51.6520 h1         1 BBH       0.080700
     38 H141         1.5560    52.1530    51.4350 hc         1 BBH       0.092200
     39 H142         2.5910    52.4950    52.8270 hc         1 BBH       0.092200
     40 H171         4.5890    51.5020    53.6240 h2         1 BBH       0.082700
     41 H172         5.6260    50.2200    52.9880 h2         1 BBH       0.082700
     42 HNA          0.0260    49.1380    52.6210 hn         1 BBH       0.347500
     43 HOA         -0.3920    48.8160    55.0320 ho         1 BBH       0.441000
     44 HC71         6.5040    50.5410    50.7910 h1         1 BBH       0.074700
     45 HC72         5.8500    51.8690    49.8300 h1         1 BBH       0.074700
     46 H101         5.5430    54.0330    51.8220 ha         1 BBH       0.116000
     47 H121         8.6900    51.1600    51.4000 ha         1 BBH       0.116000
     48 H161        10.2690    52.7320    52.4670 ha         1 BBH       0.114500
     49 H181         9.4860    54.9610    53.2180 ha         1 BBH       0.114000
     50 HC91         7.1120    55.6010    52.8930 ha         1 BBH       0.114500
@<TRIPOS>BOND
     1     1     2 ar  
     2     1     6 ar  
     3     1     9 1   
     4     2     3 ar  
     5     2    30 1   
     6     3     4 ar  
     7     3    31 1   
     8     4     5 ar  
     9     4     7 1   
    10     5     6 ar  
    11     5    32 1   
    12     6    33 1   
    13     7     8 1   
    14     8    34 1   
    15     8    35 1   
    16     8    36 1   
    17     9    10 2   
    18     9    11 2   
    19     9    12 1   
    20    12    13 1   
    21    12    17 1   
    22    13    14 1   
    23    13    19 1   
    24    13    37 1   
    25    14    15 1   
    26    14    38 1   
    27    14    39 1   
    28    15    16 1   
    29    15    18 2   
    30    16    17 1   
    31    16    23 1   
    32    17    40 1   
    33    17    41 1   
    34    19    20 1   
    35    19    22 2   
    36    20    21 1   
    37    20    42 1   
    38    21    43 1   
    39    23    26 1   
    40    23    44 1   
    41    23    45 1   
    42    24    25 ar  
    43    24    29 ar  
    44    24    50 1   
    45    25    26 ar  
    46    25    46 1   
    47    26    27 ar  
    48    27    28 ar  
    49    27    47 1   
    50    28    29 ar  
    51    28    48 1   
    52    29    49 1   
@<TRIPOS>SUBSTRUCTURE
     1 BBH         1 TEMP              0 ****  ****    0 ROOT
