@<TRIPOS>MOLECULE
BBH
   50    52     1     0     0
SMALL
No Charge or Current Charge


@<TRIPOS>ATOM
      1 C1           3.4430    47.8690    54.6690 ca         1 BBH      -0.348500
      2 C2           3.3870    48.1200    56.0530 ca         1 BBH       0.032000
      3 C3           2.5070    47.3860    56.8650 ca         1 BBH      -0.199000
      4 C4           1.6790    46.3960    56.2960 ca         1 BBH       0.199100
      5 C5           1.7410    46.1490    54.9170 ca         1 BBH      -0.199000
      6 C6           2.6200    46.8780    54.0990 ca         1 BBH       0.032000
      7 O7           0.7940    45.6450    57.0440 os         1 BBH      -0.342100
      8 C8           0.6500    45.8210    58.4650 c3         1 BBH       0.145900
      9 S9           4.5740    48.8140    53.6410 sy         1 BBH       1.225600
     10 O10          4.5770    48.2820    52.2760 o          1 BBH      -0.549500
     11 O11          5.8060    48.9980    54.4140 o          1 BBH      -0.549500
     12 N12          3.8370    50.3430    53.5900 n3         1 BBH      -0.804500
     13 C13          2.3690    50.4150    53.2490 c6         1 BBH       0.161500
     14 C14          2.1310    51.0710    51.8490 c6         1 BBH      -0.164400
     15 C15          3.3520    51.0090    50.9340 c          1 BBH       0.566000
     16 N16          4.5760    51.3330    51.5240 n          1 BBH      -0.428800
     17 C17          4.6550    51.3980    52.9850 c6         1 BBH       0.403200
     18 O18          3.2460    50.7130    49.7510 o          1 BBH      -0.546000
     19 C            1.4460    50.9830    54.4000 c          1 BBH       0.581100
     20 NA           0.3930    51.8220    54.0390 ns         1 BBH      -0.385400
     21 OA          -0.5810    52.2350    55.0230 oh         1 BBH      -0.408100
     22 OB           1.6120    50.7030    55.5820 o          1 BBH      -0.560100
     23 C7           5.8270    51.3430    50.7350 c3         1 BBH       0.148300
     24 C9           7.5350    54.6870    51.5180 ca         1 BBH      -0.110500
     25 C10          6.6030    53.7410    51.0590 ca         1 BBH      -0.097000
     26 C11          6.8480    52.3640    51.2230 ca         1 BBH      -0.117300
     27 C12          8.0370    51.9420    51.8520 ca         1 BBH      -0.097000
     28 C16          8.9690    52.8880    52.3110 ca         1 BBH      -0.110500
     29 C18          8.7190    54.2610    52.1440 ca         1 BBH      -0.105000
     30 HC21         4.0160    48.8900    56.4990 ha         1 BBH       0.134000
     31 HC31         2.4810    47.6030    57.9290 ha         1 BBH       0.132000
     32 HC51         1.1040    45.3860    54.4790 ha         1 BBH       0.132000
     33 HC61         2.6530    46.6700    53.0300 ha         1 BBH       0.134000
     34 HC81        -0.1030    45.1270    58.8600 h1         1 BBH       0.051033
     35 HC82         1.5980    45.6220    58.9820 h1         1 BBH       0.051033
     36 HC83         0.3270    46.8420    58.7020 h1         1 BBH       0.051033
     37 H131         1.9840    49.3920    53.1380 h1         1 BBH       0.080700
     38 H141         1.2360    50.6990    51.3350 hc         1 BBH       0.092200
     39 H142         2.0150    52.1480    52.0300 hc         1 BBH       0.092200
     40 H171         4.2850    52.3840    53.3050 h2         1 BBH       0.082700
     41 H172         5.7020    51.3120    53.3130 h2         1 BBH       0.082700
     42 HNA          0.1240    51.9310    53.0630 hn         1 BBH       0.347500
     43 HOA         -0.3670    51.6540    55.7930 ho         1 BBH       0.441000
     44 HC71         6.2640    50.3360    50.7620 h1         1 BBH       0.074700
     45 HC72         5.5980    51.5670    49.6850 h1         1 BBH       0.074700
     46 H101         5.6860    54.0780    50.5790 ha         1 BBH       0.116000
     47 H121         8.2380    50.8810    51.9890 ha         1 BBH       0.116000
     48 H161         9.8850    52.5580    52.7960 ha         1 BBH       0.114500
     49 H181         9.4410    54.9930    52.4990 ha         1 BBH       0.114000
     50 HC91         7.3400    55.7490    51.3890 ha         1 BBH       0.114500
@<TRIPOS>BOND
     1     1     2 ar  
     2     1     6 ar  
     3     1     9 1   
     4     2     3 ar  
     5     2    30 1   
     6     3     4 ar  
     7     3    31 1   
     8     4     5 ar  
     9     4     7 1   
    10     5     6 ar  
    11     5    32 1   
    12     6    33 1   
    13     7     8 1   
    14     8    34 1   
    15     8    35 1   
    16     8    36 1   
    17     9    10 2   
    18     9    11 2   
    19     9    12 1   
    20    12    13 1   
    21    12    17 1   
    22    13    14 1   
    23    13    19 1   
    24    13    37 1   
    25    14    15 1   
    26    14    38 1   
    27    14    39 1   
    28    15    16 1   
    29    15    18 2   
    30    16    17 1   
    31    16    23 1   
    32    17    40 1   
    33    17    41 1   
    34    19    20 1   
    35    19    22 2   
    36    20    21 1   
    37    20    42 1   
    38    21    43 1   
    39    23    26 1   
    40    23    44 1   
    41    23    45 1   
    42    24    25 ar  
    43    24    29 ar  
    44    24    50 1   
    45    25    26 ar  
    46    25    46 1   
    47    26    27 ar  
    48    27    28 ar  
    49    27    47 1   
    50    28    29 ar  
    51    28    48 1   
    52    29    49 1   
@<TRIPOS>SUBSTRUCTURE
     1 BBH         1 TEMP              0 ****  ****    0 ROOT
