@<TRIPOS>MOLECULE
BBJ
   38    39     1     0     0
SMALL
No Charge or Current Charge


@<TRIPOS>ATOM
      1 C5           4.2310    -2.2940    -0.9220 ca         1 BBJ      -0.100000
      2 C4           5.5050    -2.4400    -0.3410 ca         1 BBJ      -0.124000
      3 C2           4.9720    -0.6790     1.2500 ca         1 BBJ      -0.044900
      4 C1           3.6990    -0.5360     0.6670 ca         1 BBJ      -0.095000
      5 C6           3.3120    -1.3520    -0.4180 ca         1 BBJ       0.291000
      6 C10          0.8180    -0.7160    -0.6370 ce         1 BBJ       0.573200
      7 O16         -1.2880    -0.6560    -3.5590 os         1 BBJ       0.118600
      8 C3           5.8730    -1.6340     0.7470 ca         1 BBJ       0.179000
      9 F7           7.0980    -1.7770     1.2990 f          1 BBJ      -0.156000
     10 Br8          5.4630     0.4460     2.7220 br         1 BBJ      -0.057100
     11 N9           2.0630    -1.2440    -1.0440 nu         1 BBJ      -0.930200
     12 N11          0.6070    -0.3750     0.6020 n2         1 BBJ      -0.425700
     13 O12         -0.2930    -1.1970     1.3190 oh         1 BBJ      -0.513000
     14 C13         -0.2230    -0.5870    -1.6840 cc         1 BBJ       0.145700
     15 C14         -1.4990     0.0050    -1.5530 cc         1 BBJ       0.522900
     16 N15         -2.1900    -0.0060    -2.6590 nd         1 BBJ      -0.435300
     17 N17         -0.0520    -1.0120    -2.9240 nd         1 BBJ      -0.278300
     18 N18         -2.0050     0.5530    -0.3940 nu         1 BBJ      -0.921100
     19 C19         -3.3690     1.0920    -0.1870 c3         1 BBJ       0.225800
     20 C20         -4.4220    -0.0320     0.0270 c3         1 BBJ       0.192800
     21 N21         -5.7710     0.5240     0.2730 n7         1 BBJ      -0.881300
     22 S22         -7.0130    -0.4980     0.5150 s6         1 BBJ       1.249200
     23 O23         -7.9200    -0.4530    -0.6220 o          1 BBJ      -0.543000
     24 O24         -6.5220    -1.7350     1.1040 o          1 BBJ      -0.543000
     25 N25         -7.7210     0.3080     1.7040 n8         1 BBJ      -1.036100
     26 H1           3.9550    -2.9240    -1.7630 ha         1 BBJ       0.128000
     27 H2           6.2050    -3.1740    -0.7320 ha         1 BBJ       0.139000
     28 H3           3.0300     0.2240     1.0540 ha         1 BBJ       0.133000
     29 H5          -0.2120    -0.9240     2.2670 ho         1 BBJ       0.475000
     30 H6          -1.4420     0.3200     0.4320 hn         1 BBJ       0.511000
     31 H7          -3.3750     1.7520     0.6910 h1         1 BBJ       0.067200
     32 H8          -3.6730     1.7000    -1.0510 h1         1 BBJ       0.067200
     33 H9          -4.4320    -0.6690    -0.8670 h1         1 BBJ       0.056700
     34 H10         -4.0980    -0.6560     0.8720 h1         1 BBJ       0.056700
     35 H11         -5.8190     0.9920     1.1770 hn         1 BBJ       0.490000
     36 H12         -8.0740    -0.4630     2.2670 hn         1 BBJ       0.471500
     37 H13         -8.5670     0.6120     1.2280 hn         1 BBJ       0.471500
     38 H14          2.0160    -1.6600    -1.9750 hn         1 BBJ       0.516000
@<TRIPOS>BOND
     1     1     2 ar  
     2     1     5 ar  
     3     1    26 1   
     4     2     8 ar  
     5     2    27 1   
     6     3     4 ar  
     7     3     8 ar  
     8     3    10 1   
     9     4     5 ar  
    10     4    28 1   
    11     5    11 1   
    12     6    11 1   
    13     6    12 2   
    14     6    14 1   
    15     7    16 1   
    16     7    17 1   
    17     8     9 1   
    18    11    38 1   
    19    12    13 1   
    20    13    29 1   
    21    14    15 1   
    22    14    17 2   
    23    15    16 2   
    24    15    18 1   
    25    18    19 1   
    26    18    30 1   
    27    19    20 1   
    28    19    31 1   
    29    19    32 1   
    30    20    21 1   
    31    20    33 1   
    32    20    34 1   
    33    21    22 1   
    34    21    35 1   
    35    22    23 2   
    36    22    24 2   
    37    22    25 1   
    38    25    36 1   
    39    25    37 1   
@<TRIPOS>SUBSTRUCTURE
     1 BBJ         1 TEMP              0 ****  ****    0 ROOT
