@<TRIPOS>MOLECULE
BBJ
   38    39     1     0     0
SMALL
bcc


@<TRIPOS>ATOM
      1 C5           4.1840    -2.2840    -0.5660 ca         1 BBJ      -0.118000
      2 C4           5.3560    -1.5490    -0.5770 ca         1 BBJ      -0.142000
      3 C2           4.1760     0.3320     0.3390 ca         1 BBJ      -0.044900
      4 C1           3.0080    -0.4130     0.3840 ca         1 BBJ      -0.113000
      5 C6           3.0010    -1.7210    -0.0930 ca         1 BBJ       0.152600
      6 C10          0.5580    -2.0400    -0.1500 ce         1 BBJ       0.573200
      7 O16          0.4020     0.4820    -2.5980 os         1 BBJ       0.118600
      8 C3           5.3430    -0.2400    -0.1390 ca         1 BBJ       0.143900
      9 F7           6.4690     0.4790    -0.1730 f          1 BBJ      -0.120900
     10 BR8          4.1950     2.1050     0.9520 br         1 BBJ      -0.057100
     11 N9           1.8430    -2.5030    -0.0730 nu         1 BBJ      -0.736600
     12 N11         -0.4510    -2.5580     0.4450 n2         1 BBJ      -0.524200
     13 O12         -0.1020    -3.5840     1.2680 oh         1 BBJ      -0.375500
     14 C13          0.2300    -0.9390    -1.0540 cc         1 BBJ       0.145700
     15 C14         -0.9760    -0.1550    -1.1120 cc         1 BBJ       0.522900
     16 N15         -0.8280     0.7210    -2.0660 nd         1 BBJ      -0.435300
     17 N17          1.0220    -0.5140    -1.9820 nd         1 BBJ      -0.278300
     18 N18         -2.0840    -0.2890    -0.3670 nu         1 BBJ      -0.865900
     19 C19         -3.1460     0.6890    -0.4100 c3         1 BBJ       0.225800
     20 C20         -4.3930     0.1040     0.2350 c3         1 BBJ       0.192800
     21 N21         -5.4420     1.1160     0.2300 n7         1 BBJ      -0.826100
     22 S22         -7.0210     0.6860     0.1590 s6         1 BBJ       1.390800
     23 O23         -7.7970     1.8990    -0.0070 o          1 BBJ      -0.613800
     24 O24         -7.1220    -0.3640    -0.8390 o          1 BBJ      -0.613800
     25 N25         -7.3730     0.1380     1.6830 n8         1 BBJ      -0.925700
     26 H1           4.1890    -3.3020    -0.9330 ha         1 BBJ       0.146000
     27 H2           6.2770    -1.9840    -0.9420 ha         1 BBJ       0.157000
     28 H3           2.1110     0.0230     0.8040 ha         1 BBJ       0.151000
     29 H5          -0.9410    -3.9190     1.6040 ho         1 BBJ       0.436000
     30 H6          -2.0110    -0.9000     0.4310 hn         1 BBJ       0.455800
     31 H7          -2.8560     1.6170     0.0950 h1         1 BBJ       0.067200
     32 H8          -3.3680     0.9380    -1.4480 h1         1 BBJ       0.067200
     33 H9          -4.7210    -0.7600    -0.3400 h1         1 BBJ       0.056700
     34 H10         -4.1730    -0.2350     1.2530 h1         1 BBJ       0.056700
     35 H11         -5.2890     1.8700     0.8910 hn         1 BBJ       0.434800
     36 H12         -6.9800    -0.7790     1.8690 hn         1 BBJ       0.416300
     37 H13         -8.3750     0.1150     1.8460 hn         1 BBJ       0.416300
     38 H14          1.9510    -3.4480     0.2650 hn         1 BBJ       0.460800
@<TRIPOS>BOND
     1     1     2 ar  
     2     1     5 ar  
     3     1    26 1   
     4     2     8 ar  
     5     2    27 1   
     6     3     4 ar  
     7     3     8 ar  
     8     3    10 1   
     9     4     5 ar  
    10     4    28 1   
    11     5    11 1   
    12     6    11 1   
    13     6    12 2   
    14     6    14 1   
    15     7    16 1   
    16     7    17 1   
    17     8     9 1   
    18    11    38 1   
    19    12    13 1   
    20    13    29 1   
    21    14    15 1   
    22    14    17 2   
    23    15    16 2   
    24    15    18 1   
    25    18    19 1   
    26    18    30 1   
    27    19    20 1   
    28    19    31 1   
    29    19    32 1   
    30    20    21 1   
    31    20    33 1   
    32    20    34 1   
    33    21    22 1   
    34    21    35 1   
    35    22    23 2   
    36    22    24 2   
    37    22    25 1   
    38    25    36 1   
    39    25    37 1   
@<TRIPOS>SUBSTRUCTURE
     1 BBJ         1 TEMP              0 ****  ****    0 ROOT
