@<TRIPOS>MOLECULE
BBK
   30    30     1     0     0
SMALL
No Charge or Current Charge


@<TRIPOS>ATOM
      1 C1          23.0150   -28.1510   -18.4400 c6         1 BBK       0.289300
      2 O1          22.4940   -28.8270   -17.2900 oh         1 BBK      -0.651000
      3 C2          22.7670   -26.6120   -18.3600 c6         1 BBK       0.091700
      4 N2          23.4700   -26.0110   -17.2000 ns         1 BBK      -0.517900
      5 C3          21.2360   -26.2800   -18.3100 c6         1 BBK       0.162300
      6 O3          21.0420   -24.8630   -18.1390 oh         1 BBK      -0.643000
      7 C4          20.4620   -26.7510   -19.5820 c6         1 BBK       0.152300
      8 O4          20.9430   -26.0430   -20.7430 oh         1 BBK      -0.634000
      9 C5          20.5480   -28.2980   -19.7710 c6         1 BBK       0.030300
     10 S5          22.2890   -28.9110   -19.9510 ss         1 BBK      -0.364000
     11 C6          19.6920   -28.8280   -20.9580 c3         1 BBK       0.167600
     12 O6          18.3080   -28.4670   -20.8370 oh         1 BBK      -0.669000
     13 C7          24.8270   -25.8270   -17.0990 c          1 BBK       0.599100
     14 O7          25.6020   -26.2260   -17.9530 o          1 BBK      -0.594100
     15 C8          25.2860   -25.0990   -15.8440 c3         1 BBK      -0.181100
     16 H1          24.1000   -28.3300   -18.5110 h2         1 BBK       0.093700
     17 HO1         22.9520   -28.4350   -16.5160 ho         1 BBK       0.445000
     18 H2          23.1840   -26.1640   -19.2740 h1         1 BBK       0.117700
     19 HN2         22.9030   -25.5970   -16.4670 hn         1 BBK       0.315500
     20 H3          20.8030   -26.7980   -17.4430 h1         1 BBK       0.040700
     21 HO3         21.0900   -24.4870   -19.0470 ho         1 BBK       0.445000
     22 H4          19.4030   -26.4990   -19.4200 h1         1 BBK       0.047700
     23 HO4         20.2960   -26.2070   -21.4640 ho         1 BBK       0.447000
     24 H5          20.1500   -28.7690   -18.8600 h1         1 BBK       0.094700
     25 H6          20.1070   -28.4390   -21.8980 h1         1 BBK       0.038200
     26 H6A         19.7920   -29.9220   -20.9880 h1         1 BBK       0.038200
     27 HO6         17.8310   -28.8990   -21.5810 ho         1 BBK       0.450000
     28 H8          26.3750   -24.9790   -15.8000 hc         1 BBK       0.061700
     29 H8A         24.7700   -24.1340   -15.7830 hc         1 BBK       0.061700
     30 H8B         24.9010   -25.6250   -14.9640 hc         1 BBK       0.061700
@<TRIPOS>BOND
     1     1     2 1   
     2     1     3 1   
     3     1    10 1   
     4     1    16 1   
     5     2    17 1   
     6     3     4 1   
     7     3     5 1   
     8     3    18 1   
     9     4    13 1   
    10     4    19 1   
    11     5     6 1   
    12     5     7 1   
    13     5    20 1   
    14     6    21 1   
    15     7     8 1   
    16     7     9 1   
    17     7    22 1   
    18     8    23 1   
    19     9    10 1   
    20     9    11 1   
    21     9    24 1   
    22    11    12 1   
    23    11    25 1   
    24    11    26 1   
    25    12    27 1   
    26    13    14 2   
    27    13    15 1   
    28    15    28 1   
    29    15    29 1   
    30    15    30 1   
@<TRIPOS>SUBSTRUCTURE
     1 BBK         1 TEMP              0 ****  ****    0 ROOT
