@<TRIPOS>MOLECULE
BBK
   30    30     1     0     0
SMALL
abcg2


@<TRIPOS>ATOM
      1 C1          22.9790   -28.1690   -18.4070 c6         1 BBK       0.289300
      2 O1          22.4610   -28.7570   -17.2460 oh         1 BBK      -0.651000
      3 C2          22.7900   -26.6430   -18.4250 c6         1 BBK       0.091700
      4 N2          23.4190   -26.0690   -17.2520 ns         1 BBK      -0.517900
      5 C3          21.3140   -26.2420   -18.4440 c6         1 BBK       0.162300
      6 O3          21.2620   -24.8390   -18.3500 oh         1 BBK      -0.643000
      7 C4          20.5790   -26.7440   -19.6880 c6         1 BBK       0.152300
      8 O4          21.1840   -26.1850   -20.8230 oh         1 BBK      -0.634000
      9 C5          20.5460   -28.2730   -19.7210 c6         1 BBK       0.030300
     10 S5          22.2290   -28.9550   -19.8450 ss         1 BBK      -0.364000
     11 C6          19.7550   -28.8460   -20.8890 c3         1 BBK       0.167600
     12 O6          18.4360   -28.3610   -20.8040 oh         1 BBK      -0.669000
     13 C7          24.7470   -25.8360   -17.1640 c          1 BBK       0.599100
     14 O7          25.5340   -26.1720   -18.0360 o          1 BBK      -0.594100
     15 C8          25.1760   -25.1390   -15.8950 c3         1 BBK      -0.181100
     16 H1          24.0500   -28.3770   -18.5200 h2         1 BBK       0.093700
     17 HO1         22.8800   -28.3280   -16.4880 ho         1 BBK       0.445000
     18 H2          23.2860   -26.2580   -19.3190 h1         1 BBK       0.117700
     19 HN2         22.8260   -25.6950   -16.5280 hn         1 BBK       0.315500
     20 H3          20.8200   -26.7040   -17.5770 h1         1 BBK       0.040700
     21 HO3         20.3540   -24.5810   -18.1630 ho         1 BBK       0.445000
     22 H4          19.5380   -26.4030   -19.5930 h1         1 BBK       0.047700
     23 HO4         20.5660   -26.2180   -21.5590 ho         1 BBK       0.447000
     24 H5          20.0950   -28.6330   -18.7920 h1         1 BBK       0.094700
     25 H6          20.2330   -28.5640   -21.8360 h1         1 BBK       0.038200
     26 H6A         19.7870   -29.9420   -20.8330 h1         1 BBK       0.038200
     27 HO6         17.9570   -28.6540   -21.5850 ho         1 BBK       0.450000
     28 H8          26.2470   -24.9570   -15.9070 hc         1 BBK       0.061700
     29 H8A         24.6570   -24.1870   -15.7780 hc         1 BBK       0.061700
     30 H8B         24.9340   -25.7500   -15.0240 hc         1 BBK       0.061700
@<TRIPOS>BOND
     1     1     2 1   
     2     1     3 1   
     3     1    10 1   
     4     1    16 1   
     5     2    17 1   
     6     3     4 1   
     7     3     5 1   
     8     3    18 1   
     9     4    13 1   
    10     4    19 1   
    11     5     6 1   
    12     5     7 1   
    13     5    20 1   
    14     6    21 1   
    15     7     8 1   
    16     7     9 1   
    17     7    22 1   
    18     8    23 1   
    19     9    10 1   
    20     9    11 1   
    21     9    24 1   
    22    11    12 1   
    23    11    25 1   
    24    11    26 1   
    25    12    27 1   
    26    13    14 2   
    27    13    15 1   
    28    15    28 1   
    29    15    29 1   
    30    15    30 1   
@<TRIPOS>SUBSTRUCTURE
     1 BBK         1 TEMP              0 ****  ****    0 ROOT
