@<TRIPOS>MOLECULE
BBL
   28    28     1     0     0
SMALL
abcg2


@<TRIPOS>ATOM
      1 OG2          5.0920     0.9530    -0.3370 o          1 BBL      -0.723000
      2 CB2          3.8590     0.9710    -0.4920 c          1 BBL       0.715000
      3 OG1          3.1750     1.8850    -0.9950 o          1 BBL      -0.723000
      4 CA           3.1100    -0.2990    -0.0150 c3         1 BBL      -0.030300
      5 CBZ          3.6040    -1.5270    -0.7760 c3         1 BBL      -0.080100
      6 N            1.6890    -0.0910    -0.1770 ns         1 BBL      -0.458900
      7 C            0.7540    -0.8170     0.4430 c          1 BBL       0.620100
      8 O            0.9590    -1.7790     1.1610 o          1 BBL      -0.593000
      9 OEZ         -0.4770    -0.3490     0.1710 os         1 BBL      -0.467100
     10 CB          -1.5760    -1.0360     0.7710 c3         1 BBL       0.229900
     11 CG          -2.8270    -0.3450     0.3170 ca         1 BBL      -0.080300
     12 CD1         -3.2520    -0.4550    -1.0060 ca         1 BBL      -0.087000
     13 CE1         -4.4010     0.1950    -1.4330 ca         1 BBL      -0.120500
     14 CZ          -5.1420     0.9610    -0.5390 ca         1 BBL      -0.113000
     15 CE2         -4.7270     1.0730     0.7800 ca         1 BBL      -0.120500
     16 CD2         -3.5720     0.4250     1.2030 ca         1 BBL      -0.087000
     17 HA           3.3380    -0.4370     1.0470 h1         1 BBL       0.047700
     18 HBZ1         4.6760    -1.6550    -0.6310 hc         1 BBL       0.026033
     19 HBZ2         3.1070    -2.4320    -0.4280 hc         1 BBL       0.026033
     20 HBZ3         3.4150    -1.4250    -1.8460 hc         1 BBL       0.026033
     21 HN           1.4380     0.7490    -0.6780 hn         1 BBL       0.355500
     22 HB1         -1.5800    -2.0840     0.4630 h1         1 BBL       0.045700
     23 HB2         -1.4990    -1.0080     1.8600 h1         1 BBL       0.045700
     24 HD1         -2.6860    -1.0580    -1.7060 ha         1 BBL       0.116000
     25 HE1         -4.7210     0.1020    -2.4620 ha         1 BBL       0.105000
     26 HZ          -6.0400     1.4640    -0.8710 ha         1 BBL       0.102000
     27 HE2         -5.2980     1.6680     1.4810 ha         1 BBL       0.105000
     28 HD2         -3.2510     0.5180     2.2330 ha         1 BBL       0.116000
@<TRIPOS>BOND
     1     1     2 1   
     2     2     3 1   
     3     2     4 1   
     4     4     5 1   
     5     4     6 1   
     6     4    17 1   
     7     5    18 1   
     8     5    19 1   
     9     5    20 1   
    10     6     7 1   
    11     6    21 1   
    12     7     8 2   
    13     7     9 1   
    14     9    10 1   
    15    10    11 1   
    16    10    22 1   
    17    10    23 1   
    18    11    12 ar  
    19    11    16 ar  
    20    12    13 ar  
    21    12    24 1   
    22    13    14 ar  
    23    13    25 1   
    24    14    15 ar  
    25    14    26 1   
    26    15    16 ar  
    27    15    27 1   
    28    16    28 1   
@<TRIPOS>SUBSTRUCTURE
     1 BBL         1 TEMP              0 ****  ****    0 ROOT
