@<TRIPOS>MOLECULE
BBL
   28    28     1     0     0
SMALL
No Charge or Current Charge


@<TRIPOS>ATOM
      1 OG2          4.8850     1.3080     0.4850 o          1 BBL      -0.723000
      2 CB2          3.9540     1.0200    -0.2550 c          1 BBL       0.715000
      3 OG1          3.5260     1.7760    -1.1180 o          1 BBL      -0.723000
      4 CA           3.1870    -0.3140     0.0140 c3         1 BBL      -0.030300
      5 CBZ          3.6410    -1.4330    -0.9500 c3         1 BBL      -0.080100
      6 N            1.7230    -0.1000    -0.0530 ns         1 BBL      -0.458900
      7 C            0.7730    -0.9180     0.4880 c          1 BBL       0.620100
      8 O            0.9960    -1.9300     1.1340 o          1 BBL      -0.593000
      9 OEZ         -0.4560    -0.4070     0.2080 os         1 BBL      -0.467100
     10 CB          -1.6010    -1.1210     0.7010 c3         1 BBL       0.229900
     11 CG          -2.8580    -0.3770     0.2710 ca         1 BBL      -0.080300
     12 CD1         -3.4780    -0.6800    -0.9580 ca         1 BBL      -0.087000
     13 CE1         -4.6400     0.0060    -1.3550 ca         1 BBL      -0.120500
     14 CZ          -5.1880     0.9990    -0.5250 ca         1 BBL      -0.113000
     15 CE2         -4.5740     1.3060     0.7000 ca         1 BBL      -0.120500
     16 CD2         -3.4120     0.6210     1.0970 ca         1 BBL      -0.087000
     17 HA           3.4320    -0.6250     1.0380 h1         1 BBL       0.047700
     18 HBZ1         4.7230    -1.5890    -0.8710 hc         1 BBL       0.026033
     19 HBZ2         3.1430    -2.3800    -0.7130 hc         1 BBL       0.026033
     20 HBZ3         3.4070    -1.1700    -1.9890 hc         1 BBL       0.026033
     21 HN           1.3760     0.7110    -0.5520 hn         1 BBL       0.355500
     22 HB1         -1.6240    -2.1430     0.2990 h1         1 BBL       0.045700
     23 HB2         -1.5730    -1.1900     1.7970 h1         1 BBL       0.045700
     24 HD1         -3.0570    -1.4450    -1.6070 ha         1 BBL       0.116000
     25 HE1         -5.1130    -0.2320    -2.3040 ha         1 BBL       0.105000
     26 HZ          -6.0870     1.5290    -0.8320 ha         1 BBL       0.102000
     27 HE2         -4.9970     2.0760     1.3420 ha         1 BBL       0.105000
     28 HD2         -2.9400     0.8670     2.0470 ha         1 BBL       0.116000
@<TRIPOS>BOND
     1     1     2 1   
     2     2     3 1   
     3     2     4 1   
     4     4     5 1   
     5     4     6 1   
     6     4    17 1   
     7     5    18 1   
     8     5    19 1   
     9     5    20 1   
    10     6     7 1   
    11     6    21 1   
    12     7     8 2   
    13     7     9 1   
    14     9    10 1   
    15    10    11 1   
    16    10    22 1   
    17    10    23 1   
    18    11    12 ar  
    19    11    16 ar  
    20    12    13 ar  
    21    12    24 1   
    22    13    14 ar  
    23    13    25 1   
    24    14    15 ar  
    25    14    26 1   
    26    15    16 ar  
    27    15    27 1   
    28    16    28 1   
@<TRIPOS>SUBSTRUCTURE
     1 BBL         1 TEMP              0 ****  ****    0 ROOT
