@<TRIPOS>MOLECULE
BBM
   40    41     1     0     0
SMALL
abcg2


@<TRIPOS>ATOM
      1 O1           1.4960    -1.4200     1.1650 o          1 BBM      -0.555100
      2 C7           2.3680    -0.6840     0.7450 c          1 BBM       0.618700
      3 N2           3.6530    -1.0410     0.5900 ns         1 BBM      -0.388400
      4 O4           4.0890    -2.2390     1.0480 os         1 BBM      -0.190100
      5 C15          4.0330    -3.2420     0.0340 c3         1 BBM       0.080600
      6 C16          4.6080    -4.5190     0.6230 c3         1 BBM       0.170300
      7 C17          4.6630    -5.5880    -0.4570 c3         1 BBM       0.129600
      8 O3           5.2960    -6.7280     0.0680 oh         1 BBM      -0.640000
      9 O2           3.9100    -4.9390     1.7690 oh         1 BBM      -0.621000
     10 C8           2.1060     0.7380     0.3540 ca         1 BBM      -0.204600
     11 C9           2.8670     1.7480     0.9300 ca         1 BBM      -0.026000
     12 C10          2.5730     3.0790     0.6850 ca         1 BBM      -0.087900
     13 BR           3.5520     4.4560     1.4880 br         1 BBM      -0.038100
     14 C11          1.5320     3.3920    -0.1700 ca         1 BBM       0.200000
     15 F1           1.2320     4.6530    -0.4490 f          1 BBM      -0.132000
     16 C12          0.8040     2.3870    -0.7760 ca         1 BBM       0.094000
     17 F2          -0.1480     2.7260    -1.6430 f          1 BBM      -0.142000
     18 C13          1.0500     1.0430    -0.5140 ca         1 BBM       0.337000
     19 N            0.3220     0.0690    -1.1760 nu         1 BBM      -0.964000
     20 C3          -1.0620    -0.0050    -1.1540 ca         1 BBM       0.287000
     21 C26         -1.7130    -0.8390    -2.0620 ca         1 BBM       0.126000
     22 F3          -0.9580    -1.5520    -2.9110 f          1 BBM      -0.179000
     23 C4          -1.8630     0.7110    -0.2670 ca         1 BBM      -0.131000
     24 C5          -3.2460     0.6160    -0.3080 ca         1 BBM      -0.058000
     25 C6          -3.8500    -0.2220    -1.2310 ca         1 BBM       0.187000
     26 I           -5.9420    -0.3790    -1.2970 i          1 BBM      -0.296000
     27 C1          -3.0820    -0.9690    -2.1150 ca         1 BBM      -0.090000
     28 HN2          4.3550    -0.4380     0.1830 hn         1 BBM       0.345500
     29 H151         4.6210    -2.9310    -0.8360 h1         1 BBM       0.041200
     30 H152         2.9980    -3.3960    -0.2910 h1         1 BBM       0.041200
     31 H16          5.6310    -4.3140     0.9560 h1         1 BBM       0.096700
     32 H171         5.2020    -5.1860    -1.3250 h1         1 BBM       0.020200
     33 H172         3.6410    -5.8120    -0.7970 h1         1 BBM       0.020200
     34 HO3          5.2740    -7.4160    -0.6040 ho         1 BBM       0.445000
     35 HO2          3.0130    -5.1850     1.5150 ho         1 BBM       0.442000
     36 H9           3.6720     1.4940     1.6070 ha         1 BBM       0.145000
     37 HN           0.8080    -0.7900    -1.3780 hn         1 BBM       0.508000
     38 H4          -1.4100     1.3420     0.4860 ha         1 BBM       0.128000
     39 H5          -3.8320     1.1880     0.3970 ha         1 BBM       0.134000
     40 H1          -3.5230    -1.6340    -2.8460 ha         1 BBM       0.145000
@<TRIPOS>BOND
     1     1     2 2   
     2     2     3 1   
     3     2    10 1   
     4     3     4 1   
     5     3    28 1   
     6     4     5 1   
     7     5     6 1   
     8     5    29 1   
     9     5    30 1   
    10     6     7 1   
    11     6     9 1   
    12     6    31 1   
    13     7     8 1   
    14     7    32 1   
    15     7    33 1   
    16     8    34 1   
    17     9    35 1   
    18    10    11 ar  
    19    10    18 ar  
    20    11    12 ar  
    21    11    36 1   
    22    12    13 1   
    23    12    14 ar  
    24    14    15 1   
    25    14    16 ar  
    26    16    17 1   
    27    16    18 ar  
    28    18    19 1   
    29    19    20 1   
    30    19    37 1   
    31    20    21 ar  
    32    20    23 ar  
    33    21    22 1   
    34    21    27 ar  
    35    23    24 ar  
    36    23    38 1   
    37    24    25 ar  
    38    24    39 1   
    39    25    26 1   
    40    25    27 ar  
    41    27    40 1   
@<TRIPOS>SUBSTRUCTURE
     1 BBM         1 TEMP              0 ****  ****    0 ROOT
