@<TRIPOS>MOLECULE
BBM
   40    41     1     0     0
SMALL
No Charge or Current Charge


@<TRIPOS>ATOM
      1 O1           1.6040    -1.7880    -0.8290 o          1 BBM      -0.555100
      2 C7           2.2110    -0.9740    -0.1430 c          1 BBM       0.618700
      3 N2           3.1930    -1.3750     0.7500 ns         1 BBM      -0.388400
      4 O4           3.3550    -2.7810     0.9980 os         1 BBM      -0.190100
      5 C15          4.4680    -3.3160     0.2620 c3         1 BBM       0.080600
      6 C16          4.6310    -4.8160     0.6170 c3         1 BBM       0.170300
      7 C17          5.9080    -5.4270    -0.0150 c3         1 BBM       0.129600
      8 O3           5.9860    -6.8320     0.2810 oh         1 BBM      -0.640000
      9 O2           3.4910    -5.5720     0.1670 oh         1 BBM      -0.621000
     10 C8           1.9950     0.5220    -0.2620 ca         1 BBM      -0.204600
     11 C9           3.0460     1.4110     0.0800 ca         1 BBM      -0.026000
     12 C10          2.8860     2.7980    -0.0470 ca         1 BBM      -0.087900
     13 Br           4.3410     3.9600     0.4140 br         1 BBM      -0.038100
     14 C11          1.6810     3.3230    -0.5340 ca         1 BBM       0.200000
     15 F1           1.5400     4.6610    -0.6840 f          1 BBM      -0.132000
     16 C12          0.6260     2.4650    -0.8780 ca         1 BBM       0.094000
     17 F2          -0.5060     3.0050    -1.3970 f          1 BBM      -0.142000
     18 C13          0.7630     1.0590    -0.7220 ca         1 BBM       0.337000
     19 N           -0.2920     0.1830    -1.0330 nu         1 BBM      -0.964000
     20 C3          -1.6920     0.2430    -0.9130 ca         1 BBM       0.287000
     21 C26         -2.5140    -0.6440    -1.6530 ca         1 BBM       0.126000
     22 F3          -1.9600    -1.5440    -2.5020 f          1 BBM      -0.179000
     23 C4          -2.3010     1.1400    -0.0140 ca         1 BBM      -0.131000
     24 C5          -3.7020     1.1790     0.1170 ca         1 BBM      -0.058000
     25 C6          -4.5050     0.3110    -0.6400 ca         1 BBM       0.187000
     26 I           -6.6590     0.3710    -0.4330 i          1 BBM      -0.296000
     27 C1          -3.9130    -0.6050    -1.5220 ca         1 BBM      -0.090000
     28 HN2          3.6300    -0.7420     1.4110 hn         1 BBM       0.345500
     29 H151         5.3900    -2.7830     0.5280 h1         1 BBM       0.041200
     30 H152         4.3100    -3.2070    -0.8190 h1         1 BBM       0.041200
     31 H16          4.7320    -4.8940     1.7090 h1         1 BBM       0.096700
     32 H171         6.7890    -4.9060     0.3830 h1         1 BBM       0.020200
     33 H172         5.8900    -5.2680    -1.1020 h1         1 BBM       0.020200
     34 HO3          6.8350    -7.1610    -0.0930 ho         1 BBM       0.445000
     35 HO2          3.8150    -6.5000     0.1120 ho         1 BBM       0.442000
     36 H9           4.0100     1.0390     0.4210 ha         1 BBM       0.145000
     37 HN           0.0480    -0.7520    -1.2890 hn         1 BBM       0.508000
     38 H4          -1.6930     1.8010     0.5970 ha         1 BBM       0.128000
     39 H5          -4.1670     1.8760     0.8100 ha         1 BBM       0.134000
     40 H1          -4.5330    -1.2840    -2.0990 ha         1 BBM       0.145000
@<TRIPOS>BOND
     1     1     2 2   
     2     2     3 1   
     3     2    10 1   
     4     3     4 1   
     5     3    28 1   
     6     4     5 1   
     7     5     6 1   
     8     5    29 1   
     9     5    30 1   
    10     6     7 1   
    11     6     9 1   
    12     6    31 1   
    13     7     8 1   
    14     7    32 1   
    15     7    33 1   
    16     8    34 1   
    17     9    35 1   
    18    10    11 ar  
    19    10    18 ar  
    20    11    12 ar  
    21    11    36 1   
    22    12    13 1   
    23    12    14 ar  
    24    14    15 1   
    25    14    16 ar  
    26    16    17 1   
    27    16    18 ar  
    28    18    19 1   
    29    19    20 1   
    30    19    37 1   
    31    20    21 ar  
    32    20    23 ar  
    33    21    22 1   
    34    21    27 ar  
    35    23    24 ar  
    36    23    38 1   
    37    24    25 ar  
    38    24    39 1   
    39    25    26 1   
    40    25    27 ar  
    41    27    40 1   
@<TRIPOS>SUBSTRUCTURE
     1 BBM         1 TEMP              0 ****  ****    0 ROOT
