@<TRIPOS>MOLECULE
BBO
   44    47     1     0     0
SMALL
bcc


@<TRIPOS>ATOM
      1 C10         -3.2870     2.3450     0.5760 ca         1 BBO      -0.035000
      2 C13          0.7190     0.3690    -1.4510 c3         1 BBO       0.091000
      3 C15          3.1750     0.3440    -0.9750 c3         1 BBO       0.170800
      4 C17          5.5040    -0.9920     1.6410 c6         1 BBO       0.129900
      5 C01         -4.5900     2.2240     1.0860 ca         1 BBO      -0.148500
      6 C02         -5.2100     1.0010     1.1180 ca         1 BBO      -0.074000
      7 C03         -4.5510    -0.1520     0.6370 ca         1 BBO      -0.062000
      8 C04         -5.1540    -1.4280     0.6500 ca         1 BBO      -0.074000
      9 C05         -4.4810    -2.5230     0.1760 ca         1 BBO      -0.148500
     10 C06         -3.1780    -2.3910    -0.3300 ca         1 BBO      -0.035000
     11 C07         -2.5630    -1.1610    -0.3580 ca         1 BBO      -0.164100
     12 C08         -3.2400    -0.0230     0.1230 ca         1 BBO       0.021000
     13 C09         -2.6180     1.2400     0.1020 ca         1 BBO      -0.164100
     14 C11         -1.2520     1.3800    -0.4290 c          1 BBO       0.733600
     15 C12         -1.1980    -1.0340    -0.8940 c          1 BBO       0.733600
     16 C14          1.7820     0.2010    -0.3740 c3         1 BBO      -0.094400
     17 C16          4.4000    -1.0130     0.6020 c6         1 BBO       0.125300
     18 C18          6.5680     0.7480     0.5370 c6         1 BBO       0.129900
     19 C19          5.4930     0.7600    -0.5320 c6         1 BBO       0.125300
     20 N01         -0.6400     0.2360    -0.9220 n          1 BBO      -0.506400
     21 N02          4.2290     0.3070     0.0210 n3         1 BBO      -0.712600
     22 O01         -0.6720     2.4470    -0.4460 o          1 BBO      -0.598500
     23 O02         -0.5730    -1.9920    -1.3020 o          1 BBO      -0.598500
     24 O03          6.7230    -0.5340     1.1030 os         1 BBO      -0.403600
     25 H1          -2.8110     3.3160     0.5570 ha         1 BBO       0.158500
     26 H2           0.8010     1.3460    -1.9220 h1         1 BBO       0.068200
     27 H3           0.8470    -0.3760    -2.2330 h1         1 BBO       0.068200
     28 H4           3.3260    -0.4280    -1.7490 h1         1 BBO       0.032700
     29 H5           3.2350     1.3090    -1.4870 h1         1 BBO       0.032700
     30 H7           5.6730    -1.9980     2.0270 h1         1 BBO       0.049950
     31 H8          -5.1010     3.1040     1.4500 ha         1 BBO       0.142500
     32 H9          -6.2130     0.9070     1.5140 ha         1 BBO       0.138000
     33 H10         -6.1590    -1.5330     1.0420 ha         1 BBO       0.138000
     34 H11         -4.9480    -3.4980     0.1920 ha         1 BBO       0.142500
     35 H12         -2.6580    -3.2650    -0.6980 ha         1 BBO       0.158500
     36 H13          1.6510     0.9550     0.4050 hc         1 BBO       0.058700
     37 H14          1.6620    -0.7780     0.0950 hc         1 BBO       0.058700
     38 H15          4.6280    -1.7680    -0.1720 h1         1 BBO       0.041200
     39 H16          3.4780    -1.3310     1.0930 h1         1 BBO       0.041200
     40 H17          7.5280     1.0350     0.1060 h1         1 BBO       0.049950
     41 H18          6.3150     1.4820     1.3150 h1         1 BBO       0.049950
     42 H19          5.3800     1.7800    -0.9070 h1         1 BBO       0.041200
     43 H20          5.8160     0.1360    -1.3840 h1         1 BBO       0.041200
     44 H6           5.1930    -0.3560     2.4830 h1         1 BBO       0.049950
@<TRIPOS>BOND
     1     1     5 ar  
     2     1    13 ar  
     3     1    25 1   
     4     2    16 1   
     5     2    20 1   
     6     2    26 1   
     7     2    27 1   
     8     3    16 1   
     9     3    21 1   
    10     3    28 1   
    11     3    29 1   
    12     4    17 1   
    13     4    24 1   
    14     4    30 1   
    15     4    44 1   
    16     5     6 ar  
    17     5    31 1   
    18     6     7 ar  
    19     6    32 1   
    20     7     8 ar  
    21     7    12 ar  
    22     8     9 ar  
    23     8    33 1   
    24     9    10 ar  
    25     9    34 1   
    26    10    11 ar  
    27    10    35 1   
    28    11    12 ar  
    29    11    15 1   
    30    12    13 ar  
    31    13    14 1   
    32    14    20 1   
    33    14    22 2   
    34    15    20 1   
    35    15    23 2   
    36    16    36 1   
    37    16    37 1   
    38    17    21 1   
    39    17    38 1   
    40    17    39 1   
    41    18    19 1   
    42    18    24 1   
    43    18    40 1   
    44    18    41 1   
    45    19    21 1   
    46    19    42 1   
    47    19    43 1   
@<TRIPOS>SUBSTRUCTURE
     1 BBO         1 TEMP              0 ****  ****    0 ROOT
