@<TRIPOS>MOLECULE
BBO
   44    47     1     0     0
SMALL
No Charge or Current Charge


@<TRIPOS>ATOM
      1 C10         -3.4070     2.3470     0.6350 ca         1 BBO      -0.017000
      2 C13          0.7080     0.4150    -1.4720 c3         1 BBO       0.091000
      3 C15          3.2310     0.3710    -1.0070 c3         1 BBO       0.170800
      4 C17          5.6100    -0.9500     1.7610 c6         1 BBO       0.153100
      5 C01         -4.7080     2.2010     1.1410 ca         1 BBO      -0.130500
      6 C02         -5.3270     0.9430     1.1400 ca         1 BBO      -0.056000
      7 C03         -4.6420    -0.1750     0.6310 ca         1 BBO      -0.062000
      8 C04         -5.2650    -1.4350     0.6310 ca         1 BBO      -0.056000
      9 C05         -4.5850    -2.5520     0.1230 ca         1 BBO      -0.130500
     10 C06         -3.2830    -2.4130    -0.3850 ca         1 BBO      -0.017000
     11 C07         -2.6460    -1.1510    -0.3890 ca         1 BBO      -0.164100
     12 C08         -3.3300    -0.0310     0.1210 ca         1 BBO       0.021000
     13 C09         -2.7080     1.2320     0.1210 ca         1 BBO      -0.164100
     14 C11         -1.3140     1.4010    -0.4170 c          1 BBO       0.591100
     15 C12         -1.2510    -1.0160    -0.9350 c          1 BBO       0.591100
     16 C14          1.8140     0.2140    -0.4160 c3         1 BBO      -0.094400
     17 C16          4.4400    -0.9670     0.7320 c6         1 BBO       0.125300
     18 C18          6.7870     0.7000     0.4610 c6         1 BBO       0.153100
     19 C19          5.6460     0.7150    -0.6000 c6         1 BBO       0.125300
     20 N01         -0.6630     0.2580    -0.9070 n          1 BBO      -0.372400
     21 N02          4.3250     0.3350    -0.0060 n3         1 BBO      -0.712600
     22 O01         -0.7730     2.5000    -0.4190 o          1 BBO      -0.523000
     23 O02         -0.6550    -1.9890    -1.3800 o          1 BBO      -0.523000
     24 O03          6.8520    -0.5930     1.1090 os         1 BBO      -0.450000
     25 H1          -2.9450     3.3330     0.6450 ha         1 BBO       0.140500
     26 H2           0.8150     1.4110    -1.9210 h1         1 BBO       0.068200
     27 H3           0.8580    -0.3020    -2.2910 h1         1 BBO       0.068200
     28 H4           3.3870    -0.4130    -1.7610 h1         1 BBO       0.032700
     29 H5           3.2640     1.3330    -1.5360 h1         1 BBO       0.032700
     30 H7           5.7180    -1.9420     2.2220 h1         1 BBO       0.049950
     31 H8          -5.2380     3.0660     1.5350 ha         1 BBO       0.124500
     32 H9          -6.3360     0.8380     1.5340 ha         1 BBO       0.120000
     33 H10         -6.2740    -1.5510     1.0220 ha         1 BBO       0.120000
     34 H11         -5.0660    -3.5270     0.1220 ha         1 BBO       0.124500
     35 H12         -2.7720    -3.2920    -0.7740 ha         1 BBO       0.140500
     36 H13          1.6790     0.9440     0.3910 hc         1 BBO       0.058700
     37 H14          1.7020    -0.7840     0.0230 hc         1 BBO       0.058700
     38 H15          4.6050    -1.7930     0.0250 h1         1 BBO       0.041200
     39 H16          3.5130    -1.1890     1.2780 h1         1 BBO       0.041200
     40 H17          7.7520     0.9080    -0.0240 h1         1 BBO       0.049950
     41 H18          6.6080     1.4770     1.2170 h1         1 BBO       0.049950
     42 H19          5.5910     1.7200    -1.0410 h1         1 BBO       0.041200
     43 H20          5.9130     0.0210    -1.4110 h1         1 BBO       0.041200
     44 H6           5.3970    -0.2230     2.5590 h1         1 BBO       0.049950
@<TRIPOS>BOND
     1     1     5 ar  
     2     1    13 ar  
     3     1    25 1   
     4     2    16 1   
     5     2    20 1   
     6     2    26 1   
     7     2    27 1   
     8     3    16 1   
     9     3    21 1   
    10     3    28 1   
    11     3    29 1   
    12     4    17 1   
    13     4    24 1   
    14     4    30 1   
    15     4    44 1   
    16     5     6 ar  
    17     5    31 1   
    18     6     7 ar  
    19     6    32 1   
    20     7     8 ar  
    21     7    12 ar  
    22     8     9 ar  
    23     8    33 1   
    24     9    10 ar  
    25     9    34 1   
    26    10    11 ar  
    27    10    35 1   
    28    11    12 ar  
    29    11    15 1   
    30    12    13 ar  
    31    13    14 1   
    32    14    20 1   
    33    14    22 2   
    34    15    20 1   
    35    15    23 2   
    36    16    36 1   
    37    16    37 1   
    38    17    21 1   
    39    17    38 1   
    40    17    39 1   
    41    18    19 1   
    42    18    24 1   
    43    18    40 1   
    44    18    41 1   
    45    19    21 1   
    46    19    42 1   
    47    19    43 1   
@<TRIPOS>SUBSTRUCTURE
     1 BBO         1 TEMP              0 ****  ****    0 ROOT
