@<TRIPOS>MOLECULE
BBP
   36    38     1     0     0
SMALL
bcc


@<TRIPOS>ATOM
      1 CL1         -5.9720    -1.0560    -0.3070 cl         1 BBP      -0.112400
      2 C4          -4.4210    -0.2980    -0.1300 ca         1 BBP       0.017400
      3 C3          -4.3500     1.0910    -0.0450 ca         1 BBP      -0.113000
      4 C2          -3.1230     1.7160     0.0980 ca         1 BBP      -0.090000
      5 C5          -3.2880    -1.0930    -0.0770 ca         1 BBP      -0.071000
      6 C6          -2.0700    -0.4510     0.0680 ca         1 BBP      -0.084100
      7 S1          -0.4850    -1.1650     0.1550 ss         1 BBP      -0.051100
      8 C7          -1.9630     0.9480     0.1580 ca         1 BBP       0.140400
      9 N1          -0.6860     1.4330     0.2940 nc         1 BBP      -0.648100
     10 C1           0.1620     0.4570     0.3170 cd         1 BBP       0.647100
     11 N2           1.4840     0.6210     0.4700 nh         1 BBP      -0.464700
     12 C8           2.1610     1.9190     0.3720 c5         1 BBP       0.420300
     13 O1           1.9410     2.5350    -0.8540 oh         1 BBP      -0.593800
     14 N3           2.3180    -0.4430     0.2480 n2         1 BBP      -0.390400
     15 C10          3.5190    -0.0180     0.2360 c2         1 BBP       0.359300
     16 C9           3.6120     1.4620     0.4940 c5         1 BBP      -0.162700
     17 C11          4.6960    -0.9150    -0.0130 c3         1 BBP      -0.065300
     18 C12          4.2680    -2.3800    -0.0550 c3         1 BBP      -0.084100
     19 C13          5.3190    -0.5250    -1.3610 c3         1 BBP      -0.084100
     20 C14          5.7280    -0.7110     1.1030 c3         1 BBP      -0.084100
     21 H3          -5.2530     1.6840    -0.0910 ha         1 BBP       0.148000
     22 H2          -3.0650     2.7940     0.1600 ha         1 BBP       0.149000
     23 H5          -3.3570    -2.1700    -0.1440 ha         1 BBP       0.155000
     24 HO1          1.0530     2.9110    -0.8490 ho         1 BBP       0.437000
     25 H9           4.2650     1.9900    -0.2020 hc         1 BBP       0.085700
     26 H9A          3.9940     1.6420     1.5010 hc         1 BBP       0.085700
     27 H312         5.1360    -3.0100    -0.2540 hc         1 BBP       0.041589
     28 H212         3.8320    -2.6980     0.8930 hc         1 BBP       0.041589
     29 H112         3.5330    -2.5650    -0.8390 hc         1 BBP       0.041589
     30 H313         6.1780    -1.1650    -1.5710 hc         1 BBP       0.041589
     31 H213         4.6030    -0.6430    -2.1760 hc         1 BBP       0.041589
     32 H113         5.6710     0.5080    -1.3680 hc         1 BBP       0.041589
     33 H314         6.0870     0.3190     1.1440 hc         1 BBP       0.041589
     34 H214         5.3160    -0.9660     2.0800 hc         1 BBP       0.041589
     35 H114         6.5930    -1.3520     0.9260 hc         1 BBP       0.041589
     36 H8           1.8390     2.5480     1.2040 h2         1 BBP       0.078700
@<TRIPOS>BOND
     1     1     2 1   
     2     2     3 ar  
     3     2     5 ar  
     4     3     4 ar  
     5     3    21 1   
     6     4     8 ar  
     7     4    22 1   
     8     5     6 ar  
     9     5    23 1   
    10     6     7 1   
    11     6     8 ar  
    12     7    10 1   
    13     8     9 1   
    14     9    10 2   
    15    10    11 1   
    16    11    12 1   
    17    11    14 1   
    18    12    13 1   
    19    12    16 1   
    20    12    36 1   
    21    13    24 1   
    22    14    15 2   
    23    15    16 1   
    24    15    17 1   
    25    16    25 1   
    26    16    26 1   
    27    17    18 1   
    28    17    19 1   
    29    17    20 1   
    30    18    27 1   
    31    18    28 1   
    32    18    29 1   
    33    19    30 1   
    34    19    31 1   
    35    19    32 1   
    36    20    33 1   
    37    20    34 1   
    38    20    35 1   
@<TRIPOS>SUBSTRUCTURE
     1 BBP         1 TEMP              0 ****  ****    0 ROOT
