@<TRIPOS>MOLECULE
BBP
   36    38     1     0     0
SMALL
No Charge or Current Charge


@<TRIPOS>ATOM
      1 Cl1         -6.2080    -0.8240    -0.4640 cl         1 BBP      -0.204000
      2 C4          -4.6000    -0.1460    -0.2470 ca         1 BBP       0.109000
      3 C3          -4.4460     1.2310     0.0080 ca         1 BBP      -0.095000
      4 C2          -3.1580     1.7800     0.1830 ca         1 BBP      -0.072000
      5 C5          -3.4690    -0.9790    -0.3280 ca         1 BBP      -0.053000
      6 C6          -2.1990    -0.4060    -0.1500 ca         1 BBP      -0.211000
      7 S1          -0.6690    -1.2660    -0.2140 ss         1 BBP       0.075800
      8 C7          -2.0290     0.9480     0.1020 ca         1 BBP       0.140400
      9 N1          -0.7260     1.4110     0.2620 nc         1 BBP      -0.648100
     10 C1           0.0570     0.3280     0.1240 cd         1 BBP       0.647100
     11 N2           1.4560     0.4700     0.2100 nh         1 BBP      -0.464700
     12 C8           2.0880     1.7470     0.6100 c5         1 BBP       0.443500
     13 O1           1.7880     2.7660    -0.3220 oh         1 BBP      -0.656000
     14 N3           2.3600    -0.5420    -0.0080 n2         1 BBP      -0.390400
     15 C10          3.5400    -0.0730     0.2000 c2         1 BBP       0.359300
     16 C9           3.5830     1.3790     0.5890 c5         1 BBP      -0.162700
     17 C11          4.8220    -0.8980    -0.0270 c3         1 BBP      -0.065300
     18 C12          4.5710    -2.4050     0.2700 c3         1 BBP      -0.084100
     19 C13          5.2620    -0.7420    -1.5060 c3         1 BBP      -0.084100
     20 C14          5.9740    -0.4130     0.8980 c3         1 BBP      -0.084100
     21 H3          -5.3220     1.8720     0.0700 ha         1 BBP       0.130000
     22 H2          -3.0380     2.8420     0.3790 ha         1 BBP       0.131000
     23 H5          -3.5810    -2.0430    -0.5250 ha         1 BBP       0.137000
     24 HO1          0.8060     2.7300    -0.3790 ho         1 BBP       0.476000
     25 H9           4.1510     1.9690    -0.1370 hc         1 BBP       0.085700
     26 H9A          4.0360     1.5220     1.5750 hc         1 BBP       0.085700
     27 H312         5.4910    -2.9900     0.1430 hc         1 BBP       0.041589
     28 H212         4.2220    -2.5460     1.3010 hc         1 BBP       0.041589
     29 H112         3.8160    -2.8260    -0.4050 hc         1 BBP       0.041589
     30 H313         6.1720    -1.3200    -1.7100 hc         1 BBP       0.041589
     31 H213         4.4770    -1.0940    -2.1870 hc         1 BBP       0.041589
     32 H113         5.4680     0.3090    -1.7450 hc         1 BBP       0.041589
     33 H314         6.2580     0.6230     0.6770 hc         1 BBP       0.041589
     34 H214         5.6790    -0.4700     1.9530 hc         1 BBP       0.041589
     35 H114         6.8700    -1.0330     0.7660 hc         1 BBP       0.041589
     36 H8           1.7720     2.0410     1.6210 h2         1 BBP       0.078700
@<TRIPOS>BOND
     1     1     2 1   
     2     2     3 ar  
     3     2     5 ar  
     4     3     4 ar  
     5     3    21 1   
     6     4     8 ar  
     7     4    22 1   
     8     5     6 ar  
     9     5    23 1   
    10     6     7 1   
    11     6     8 ar  
    12     7    10 1   
    13     8     9 1   
    14     9    10 2   
    15    10    11 1   
    16    11    12 1   
    17    11    14 1   
    18    12    13 1   
    19    12    16 1   
    20    12    36 1   
    21    13    24 1   
    22    14    15 2   
    23    15    16 1   
    24    15    17 1   
    25    16    25 1   
    26    16    26 1   
    27    17    18 1   
    28    17    19 1   
    29    17    20 1   
    30    18    27 1   
    31    18    28 1   
    32    18    29 1   
    33    19    30 1   
    34    19    31 1   
    35    19    32 1   
    36    20    33 1   
    37    20    34 1   
    38    20    35 1   
@<TRIPOS>SUBSTRUCTURE
     1 BBP         1 TEMP              0 ****  ****    0 ROOT
