@<TRIPOS>MOLECULE
BBS
   27    27     1     0     0
SMALL
abcg2


@<TRIPOS>ATOM
      1 C1           1.4340     0.0470     3.9000 c3         1 BBS      -0.077433
      2 C2           0.0240     0.0280     3.3080 c3         1 BBS       0.003300
      3 C3          -0.6980    -1.2250     3.8230 c3         1 BBS      -0.077433
      4 C4          -0.7160     1.2820     3.7920 c3         1 BBS      -0.077433
      5 CD2         -1.1710     0.0040     1.0820 ca         1 BBS      -0.145500
      6 CE2         -1.2070    -0.0160    -0.3010 ca         1 BBS      -0.026000
      7 CZ          -0.0210    -0.0350    -1.0260 ca         1 BBS      -0.223500
      8 CE1          1.1890    -0.0340    -0.3510 ca         1 BBS      -0.026000
      9 CD1          1.2120    -0.0130     1.0380 ca         1 BBS      -0.145500
     10 CG           0.0370     0.0080     1.7850 ca         1 BBS      -0.068300
     11 O1           1.1850    -0.6230    -3.2630 o          1 BBS      -0.695200
     12 O2          -1.2760    -0.7310    -3.1980 o          1 BBS      -0.695200
     13 O3          -0.1360     1.4480    -3.1510 o          1 BBS      -0.695200
     14 H11          1.9960     0.9290     3.5890 hc         1 BBS       0.028478
     15 H12          1.3730     0.0640     4.9890 hc         1 BBS       0.028478
     16 H13          2.0090    -0.8370     3.6180 hc         1 BBS       0.028478
     17 H31         -0.2040    -2.1340     3.4750 hc         1 BBS       0.028478
     18 H32         -0.6980    -1.2420     4.9140 hc         1 BBS       0.028478
     19 H33         -1.7370    -1.2650     3.4940 hc         1 BBS       0.028478
     20 H41         -0.2420     2.1890     3.4130 hc         1 BBS       0.028478
     21 H42         -1.7590     1.2930     3.4720 hc         1 BBS       0.028478
     22 H43         -0.7080     1.3300     4.8820 hc         1 BBS       0.028478
     23 HD2         -2.1090     0.0140     1.6230 ha         1 BBS       0.089000
     24 HE2         -2.1620    -0.0280    -0.8110 ha         1 BBS       0.126500
     25 HE1          2.1220    -0.0590    -0.8990 ha         1 BBS       0.126500
     26 HD1          2.1760    -0.0170     1.5300 ha         1 BBS       0.089000
     27 S           -0.0650     0.0150    -2.8130 s6         1 BBS       1.261100
@<TRIPOS>BOND
     1     1     2 1   
     2     1    14 1   
     3     1    15 1   
     4     1    16 1   
     5     2     3 1   
     6     2     4 1   
     7     2    10 1   
     8     3    17 1   
     9     3    18 1   
    10     3    19 1   
    11     4    20 1   
    12     4    21 1   
    13     4    22 1   
    14     5     6 ar  
    15     5    10 ar  
    16     5    23 1   
    17     6     7 ar  
    18     6    24 1   
    19     7     8 ar  
    20     7    27 1   
    21     8     9 ar  
    22     8    25 1   
    23     9    10 ar  
    24     9    26 1   
    25    11    27 1   
    26    12    27 1   
    27    13    27 1   
@<TRIPOS>SUBSTRUCTURE
     1 BBS         1 TEMP              0 ****  ****    0 ROOT
