@<TRIPOS>MOLECULE
BBS
   27    27     1     0     0
SMALL
No Charge or Current Charge


@<TRIPOS>ATOM
      1 C1           1.4520     0.0350     3.9530 c3         1 BBS      -0.077433
      2 C2           0.0260     0.0250     3.3330 c3         1 BBS       0.003300
      3 C3          -0.7090    -1.2420     3.8500 c3         1 BBS      -0.077433
      4 C4          -0.7210     1.2920     3.8310 c3         1 BBS      -0.077433
      5 CD2         -1.1880     0.0000     1.0730 ca         1 BBS      -0.145500
      6 CE2         -1.2220    -0.0110    -0.3320 ca         1 BBS      -0.026000
      7 CZ          -0.0270    -0.0130    -1.0770 ca         1 BBS      -0.223500
      8 CE1          1.2000     0.0090    -0.3860 ca         1 BBS      -0.026000
      9 CD1          1.2320     0.0190     1.0200 ca         1 BBS      -0.145500
     10 CG           0.0370     0.0130     1.7800 ca         1 BBS      -0.068300
     11 O1           1.1780    -0.7200    -3.2700 o          1 BBS      -0.695200
     12 O2          -1.3210    -0.7310    -3.2150 o          1 BBS      -0.695200
     13 O3          -0.0800     1.4280    -3.2170 o          1 BBS      -0.695200
     14 H11          2.0110     0.9280     3.6440 hc         1 BBS       0.028478
     15 H12          1.4030     0.0410     5.0480 hc         1 BBS       0.028478
     16 H13          2.0200    -0.8540     3.6540 hc         1 BBS       0.028478
     17 H31         -0.2200    -2.1510     3.4790 hc         1 BBS       0.028478
     18 H32         -0.7040    -1.2790     4.9470 hc         1 BBS       0.028478
     19 H33         -1.7550    -1.2650     3.5250 hc         1 BBS       0.028478
     20 H41         -0.2400     2.2000     3.4470 hc         1 BBS       0.028478
     21 H42         -1.7670     1.3000     3.5050 hc         1 BBS       0.028478
     22 H43         -0.7170     1.3440     4.9270 hc         1 BBS       0.028478
     23 HD2         -2.1320    -0.0010     1.6100 ha         1 BBS       0.089000
     24 HE2         -2.1840    -0.0150    -0.8410 ha         1 BBS       0.126500
     25 HE1          2.1380     0.0190    -0.9380 ha         1 BBS       0.126500
     26 HD1          2.2070     0.0340     1.4960 ha         1 BBS       0.089000
     27 S           -0.0680    -0.0150    -2.9300 s6         1 BBS       1.261100
@<TRIPOS>BOND
     1     1     2 1   
     2     1    14 1   
     3     1    15 1   
     4     1    16 1   
     5     2     3 1   
     6     2     4 1   
     7     2    10 1   
     8     3    17 1   
     9     3    18 1   
    10     3    19 1   
    11     4    20 1   
    12     4    21 1   
    13     4    22 1   
    14     5     6 ar  
    15     5    10 ar  
    16     5    23 1   
    17     6     7 ar  
    18     6    24 1   
    19     7     8 ar  
    20     7    27 1   
    21     8     9 ar  
    22     8    25 1   
    23     9    10 ar  
    24     9    26 1   
    25    11    27 1   
    26    12    27 1   
    27    13    27 1   
@<TRIPOS>SUBSTRUCTURE
     1 BBS         1 TEMP              0 ****  ****    0 ROOT
