@<TRIPOS>MOLECULE
BBT
   45    47     1     0     0
SMALL
No Charge or Current Charge


@<TRIPOS>ATOM
      1 N1           2.0080     1.4930    -1.9270 ne         1 BBT      -0.820100
      2 C2           2.5530     0.4470    -2.3860 c2         1 BBT       0.763200
      3 O2           3.7760     0.5640    -2.8220 oh         1 BBT      -0.611600
      4 N3           1.9830    -0.7700    -2.4890 ns         1 BBT      -0.459400
      5 C4           0.7590    -1.0890    -1.9970 c          1 BBT       0.580000
      6 O4           0.3070    -2.2120    -2.1830 o          1 BBT      -0.467000
      7 C5           0.0170     0.0100    -1.1650 c6         1 BBT       0.104500
      8 C6           0.6860     1.4130    -1.4900 c          1 BBT       0.700500
      9 O6           0.0590     2.4520    -1.3360 o          1 BBT      -0.505100
     10 NP1          0.0210    -0.3040     0.3450 n3         1 BBT      -0.754600
     11 CP2          1.3870    -0.5620     0.8950 c6         1 BBT       0.194300
     12 CP3          1.3180    -1.0330     2.3680 c6         1 BBT      -0.074400
     13 CP4          0.5650    -0.0150     3.2640 c6         1 BBT      -0.059700
     14 CP5         -0.8250     0.2840     2.6380 c6         1 BBT      -0.074400
     15 CP6         -0.6880     0.7310     1.1630 c6         1 BBT       0.194300
     16 CP7          0.4720    -0.5210     4.7360 c3         1 BBT      -0.079400
     17 CP8         -0.1410     0.4820     5.7380 c3         1 BBT       0.163600
     18 OP9         -0.0870    -0.0610     7.0610 oh         1 BBT      -0.664000
     19 CG          -1.4370    -0.0120    -1.7490 ca         1 BBT      -0.106300
     20 CD1         -1.7450     0.6410    -2.9690 ca         1 BBT      -0.086000
     21 CD2         -2.4600    -0.7670    -1.1230 ca         1 BBT      -0.086000
     22 CE1         -3.0410     0.5850    -3.5090 ca         1 BBT      -0.116500
     23 CE2         -3.7550    -0.8200    -1.6660 ca         1 BBT      -0.116500
     24 CZ          -4.0490    -0.1390    -2.8560 ca         1 BBT      -0.096000
     25 HO2          3.9220     1.5140    -2.6440 ho         1 BBT       0.525000
     26 H3           2.4950    -1.4840    -2.9830 hn         1 BBT       0.345500
     27 HP21         2.0030     0.3480     0.8400 h1         1 BBT       0.041950
     28 HP22         1.9050    -1.3410     0.3190 h1         1 BBT       0.041950
     29 HP31         2.3370    -1.1890     2.7470 hc         1 BBT       0.048950
     30 HP32         0.8160    -2.0100     2.4090 hc         1 BBT       0.048950
     31 HP4          1.1460     0.9190     3.2880 hc         1 BBT       0.044700
     32 HP51        -1.4630    -0.6090     2.6900 hc         1 BBT       0.048950
     33 HP52        -1.3390     1.0730     3.2000 hc         1 BBT       0.048950
     34 HP61        -0.1390     1.6830     1.1430 h1         1 BBT       0.041950
     35 HP62        -1.6930     0.9330     0.7680 h1         1 BBT       0.041950
     36 HP71         1.4790    -0.7770     5.0900 hc         1 BBT       0.053200
     37 HP72        -0.1100    -1.4500     4.7720 hc         1 BBT       0.053200
     38 HP81        -1.1820     0.6910     5.4600 h1         1 BBT       0.015700
     39 HP82         0.4190     1.4260     5.6930 h1         1 BBT       0.015700
     40 HO9         -0.4830     0.6100     7.6610 ho         1 BBT       0.441000
     41 HD1         -0.9840     1.1940    -3.5160 ha         1 BBT       0.133500
     42 HD2         -2.2550    -1.3260    -0.2130 ha         1 BBT       0.133500
     43 HE1         -3.2630     1.1000    -4.4420 ha         1 BBT       0.116500
     44 HE2         -4.5290    -1.3980    -1.1660 ha         1 BBT       0.116500
     45 HZ          -5.0520    -0.1820    -3.2770 ha         1 BBT       0.115000
@<TRIPOS>BOND
     1     1     2 2   
     2     1     8 1   
     3     2     3 1   
     4     2     4 1   
     5     3    25 1   
     6     4     5 1   
     7     4    26 1   
     8     5     6 2   
     9     5     7 1   
    10     7     8 1   
    11     7    10 1   
    12     7    19 1   
    13     8     9 2   
    14    10    11 1   
    15    10    15 1   
    16    11    12 1   
    17    11    27 1   
    18    11    28 1   
    19    12    13 1   
    20    12    29 1   
    21    12    30 1   
    22    13    14 1   
    23    13    16 1   
    24    13    31 1   
    25    14    15 1   
    26    14    32 1   
    27    14    33 1   
    28    15    34 1   
    29    15    35 1   
    30    16    17 1   
    31    16    36 1   
    32    16    37 1   
    33    17    18 1   
    34    17    38 1   
    35    17    39 1   
    36    18    40 1   
    37    19    20 ar  
    38    19    21 ar  
    39    20    22 ar  
    40    20    41 1   
    41    21    23 ar  
    42    21    42 1   
    43    22    24 ar  
    44    22    43 1   
    45    23    24 ar  
    46    23    44 1   
    47    24    45 1   
@<TRIPOS>SUBSTRUCTURE
     1 BBT         1 TEMP              0 ****  ****    0 ROOT
