@<TRIPOS>MOLECULE
BBT
   45    47     1     0     0
SMALL
abcg2


@<TRIPOS>ATOM
      1 N1           1.7840     1.2350    -2.7280 ne         1 BBT      -0.820100
      2 C2           1.9610     0.0700    -3.2470 c2         1 BBT       0.763200
      3 O2           2.5640    -0.0770    -4.3960 oh         1 BBT      -0.611600
      4 N3           1.5910    -1.1150    -2.6990 ns         1 BBT      -0.459400
      5 C4           0.9390    -1.2100    -1.4910 c          1 BBT       0.580000
      6 O4           0.7840    -2.2740    -0.9540 o          1 BBT      -0.467000
      7 C5           0.3580     0.1180    -0.9690 c6         1 BBT       0.104500
      8 C6           1.1230     1.3380    -1.5340 c          1 BBT       0.700500
      9 O6           1.0920     2.3890    -0.9360 o          1 BBT      -0.505100
     10 NP1          0.3280     0.0620     0.4640 n3         1 BBT      -0.754600
     11 CP2          1.6130    -0.0600     1.1300 c6         1 BBT       0.194300
     12 CP3          1.4120    -0.6940     2.4970 c6         1 BBT      -0.074400
     13 CP4          0.4380     0.1070     3.3580 c6         1 BBT      -0.059700
     14 CP5         -0.8450     0.3720     2.5680 c6         1 BBT      -0.074400
     15 CP6         -0.5420     0.9660     1.1990 c6         1 BBT       0.194300
     16 CP7          0.1890    -0.6050     4.6860 c3         1 BBT      -0.079400
     17 CP8         -0.6530     0.1940     5.6610 c3         1 BBT       0.163600
     18 OP9         -0.7520    -0.5280     6.8720 oh         1 BBT      -0.664000
     19 CG          -1.0640     0.0920    -1.5560 ca         1 BBT      -0.106300
     20 CD1         -1.4610     0.8920    -2.6230 ca         1 BBT      -0.086000
     21 CD2         -1.9820    -0.8040    -1.0070 ca         1 BBT      -0.086000
     22 CE1         -2.7530     0.8000    -3.1280 ca         1 BBT      -0.116500
     23 CE2         -3.2700    -0.8890    -1.5090 ca         1 BBT      -0.116500
     24 CZ          -3.6610    -0.0880    -2.5750 ca         1 BBT      -0.096000
     25 HO2          2.8140     0.7920    -4.7470 ho         1 BBT       0.525000
     26 H3           1.8810    -1.9760    -3.1480 hn         1 BBT       0.345500
     27 HP21         2.1050     0.9180     1.2450 h1         1 BBT       0.041950
     28 HP22         2.2930    -0.6810     0.5430 h1         1 BBT       0.041950
     29 HP31         2.3760    -0.7820     3.0050 hc         1 BBT       0.048950
     30 HP32         1.0270    -1.7080     2.3530 hc         1 BBT       0.048950
     31 HP4          0.9040     1.0790     3.5730 hc         1 BBT       0.044700
     32 HP51        -1.4000    -0.5640     2.4450 hc         1 BBT       0.048950
     33 HP52        -1.4970     1.0630     3.1080 hc         1 BBT       0.048950
     34 HP61        -0.0830     1.9550     1.3310 h1         1 BBT       0.041950
     35 HP62        -1.4720     1.1220     0.6540 h1         1 BBT       0.041950
     36 HP71         1.1540    -0.8250     5.1550 hc         1 BBT       0.053200
     37 HP72        -0.2920    -1.5700     4.4920 hc         1 BBT       0.053200
     38 HP81        -1.6470     0.3830     5.2350 h1         1 BBT       0.015700
     39 HP82        -0.1870     1.1770     5.8200 h1         1 BBT       0.015700
     40 HO9         -1.3020    -0.0240     7.4780 ho         1 BBT       0.441000
     41 HD1         -0.7860     1.6000    -3.0840 ha         1 BBT       0.133500
     42 HD2         -1.6890    -1.4210    -0.1690 ha         1 BBT       0.133500
     43 HE1         -3.0440     1.4310    -3.9570 ha         1 BBT       0.116500
     44 HE2         -3.9700    -1.5840    -1.0640 ha         1 BBT       0.116500
     45 HZ          -4.6680    -0.1540    -2.9670 ha         1 BBT       0.115000
@<TRIPOS>BOND
     1     1     2 2   
     2     1     8 1   
     3     2     3 1   
     4     2     4 1   
     5     3    25 1   
     6     4     5 1   
     7     4    26 1   
     8     5     6 2   
     9     5     7 1   
    10     7     8 1   
    11     7    10 1   
    12     7    19 1   
    13     8     9 2   
    14    10    11 1   
    15    10    15 1   
    16    11    12 1   
    17    11    27 1   
    18    11    28 1   
    19    12    13 1   
    20    12    29 1   
    21    12    30 1   
    22    13    14 1   
    23    13    16 1   
    24    13    31 1   
    25    14    15 1   
    26    14    32 1   
    27    14    33 1   
    28    15    34 1   
    29    15    35 1   
    30    16    17 1   
    31    16    36 1   
    32    16    37 1   
    33    17    18 1   
    34    17    38 1   
    35    17    39 1   
    36    18    40 1   
    37    19    20 ar  
    38    19    21 ar  
    39    20    22 ar  
    40    20    41 1   
    41    21    23 ar  
    42    21    42 1   
    43    22    24 ar  
    44    22    43 1   
    45    23    24 ar  
    46    23    44 1   
    47    24    45 1   
@<TRIPOS>SUBSTRUCTURE
     1 BBT         1 TEMP              0 ****  ****    0 ROOT
