@<TRIPOS>MOLECULE
BBU
   14    13     1     0     0
SMALL
No Charge or Current Charge


@<TRIPOS>ATOM
      1 Br1         -0.0370    -0.0360    -1.5650 br         1 BBU      -0.282000
      2 C1           0.8540    -0.0340     0.2170 c3         1 BBU       0.096600
      3 C2          -0.1780    -0.0270     1.3620 c3         1 BBU      -0.079400
      4 C3           0.4760    -0.0250     2.7610 c3         1 BBU      -0.078400
      5 C4          -0.5540    -0.0190     3.9080 c3         1 BBU      -0.089100
      6 H11          1.4880     0.8610     0.2560 h1         1 BBU       0.069700
      7 H12          1.4830    -0.9320     0.2610 h1         1 BBU       0.069700
      8 H21         -0.8250    -0.9080     1.2640 hc         1 BBU       0.055700
      9 H22         -0.8200     0.8560     1.2590 hc         1 BBU       0.055700
     10 H31          1.1230     0.8550     2.8580 hc         1 BBU       0.039700
     11 H32          1.1190    -0.9080     2.8640 hc         1 BBU       0.039700
     12 H41         -0.0440    -0.0170     4.8790 hc         1 BBU       0.034367
     13 H42         -1.1900     0.8720     3.8530 hc         1 BBU       0.034367
     14 H43         -1.1950    -0.9070     3.8590 hc         1 BBU       0.034367
@<TRIPOS>BOND
     1     1     2 1   
     2     2     3 1   
     3     2     6 1   
     4     2     7 1   
     5     3     4 1   
     6     3     8 1   
     7     3     9 1   
     8     4     5 1   
     9     4    10 1   
    10     4    11 1   
    11     5    12 1   
    12     5    13 1   
    13     5    14 1   
@<TRIPOS>SUBSTRUCTURE
     1 BBU         1 TEMP              0 ****  ****    0 ROOT
