@<TRIPOS>MOLECULE
BBU
   14    13     1     0     0
SMALL
abcg2


@<TRIPOS>ATOM
      1 BR1         -0.0030    -0.0360    -1.5220 br         1 BBU      -0.282000
      2 C1           0.8370    -0.0340     0.2650 c3         1 BBU       0.096600
      3 C2          -0.1990    -0.0280     1.3680 c3         1 BBU      -0.079400
      4 C3           0.4790    -0.0250     2.7380 c3         1 BBU      -0.078400
      5 C4          -0.5340    -0.0190     3.8740 c3         1 BBU      -0.089100
      6 H11          1.4720     0.8510     0.3000 h1         1 BBU       0.069700
      7 H12          1.4670    -0.9210     0.3040 h1         1 BBU       0.069700
      8 H21         -0.8450    -0.9050     1.2820 hc         1 BBU       0.055700
      9 H22         -0.8400     0.8530     1.2770 hc         1 BBU       0.055700
     10 H31          1.1310     0.8490     2.8210 hc         1 BBU       0.039700
     11 H32          1.1280    -0.9020     2.8260 hc         1 BBU       0.039700
     12 H41         -0.0400    -0.0180     4.8460 hc         1 BBU       0.034367
     13 H42         -1.1740     0.8640     3.8260 hc         1 BBU       0.034367
     14 H43         -1.1790    -0.8980     3.8310 hc         1 BBU       0.034367
@<TRIPOS>BOND
     1     1     2 1   
     2     2     3 1   
     3     2     6 1   
     4     2     7 1   
     5     3     4 1   
     6     3     8 1   
     7     3     9 1   
     8     4     5 1   
     9     4    10 1   
    10     4    11 1   
    11     5    12 1   
    12     5    13 1   
    13     5    14 1   
@<TRIPOS>SUBSTRUCTURE
     1 BBU         1 TEMP              0 ****  ****    0 ROOT
