@<TRIPOS>MOLECULE
BBV
   43    44     1     0     0
SMALL
abcg2


@<TRIPOS>ATOM
      1 C1           0.5950    -0.0390     1.0440 c6         1 BBV       0.370300
      2 O1          -0.5980     0.0230     0.3300 os         1 BBV      -0.489000
      3 C2           1.6730     0.6440     0.2000 c6         1 BBV       0.095700
      4 N2           1.2700     1.9790    -0.1580 ns         1 BBV      -0.493900
      5 C3           1.9980    -0.1970    -1.0310 c6         1 BBV       0.157300
      6 O3           3.0720     0.4120    -1.6970 oh         1 BBV      -0.647000
      7 C4           2.3330    -1.6230    -0.6050 c6         1 BBV       0.103300
      8 O4           2.5220    -2.3790    -1.7820 oh         1 BBV      -0.722000
      9 C5           1.2040    -2.2000     0.2550 c6         1 BBV       0.142300
     10 O5           0.9630    -1.3460     1.3640 os         1 BBV      -0.460000
     11 C6           1.5510    -3.5630     0.8110 c3         1 BBV       0.168600
     12 O6           0.4280    -4.0800     1.4830 oh         1 BBV      -0.707000
     13 C7           1.9440     3.0940     0.1800 c          1 BBV       0.610100
     14 O7           2.9560     3.0870     0.8660 o          1 BBV      -0.604100
     15 C8           1.3480     4.3800    -0.3370 c3         1 BBV      -0.179100
     16 C9          -2.9630     0.0950     0.3190 ca         1 BBV      -0.090300
     17 C10         -3.9440    -0.7960    -0.1000 ca         1 BBV      -0.092500
     18 C11         -3.1250     1.4530     0.0510 ca         1 BBV      -0.092500
     19 C12         -5.0750    -0.3430    -0.7690 ca         1 BBV      -0.114000
     20 C13         -4.2500     1.9080    -0.6200 ca         1 BBV      -0.114000
     21 C14         -5.2290     1.0100    -1.0310 ca         1 BBV      -0.104000
     22 C15         -1.7460    -0.3920     1.0500 c3         1 BBV       0.208900
     23 H1           0.4940     0.4790     2.0070 h2         1 BBV       0.082700
     24 H2           2.5680     0.7230     0.8190 h1         1 BBV       0.107700
     25 HN2          0.4510     2.0710    -0.7370 hn         1 BBV       0.322500
     26 H3           1.1080    -0.2360    -1.6800 h1         1 BBV       0.057700
     27 HO3          3.2590    -0.1040    -2.4880 ho         1 BBV       0.455000
     28 H4           3.2550    -1.5930    -0.0040 h1         1 BBV       0.054700
     29 HO4          3.2010    -3.0410    -1.6290 ho         1 BBV       0.510000
     30 H5           0.3040    -2.2950    -0.3670 h1         1 BBV       0.075700
     31 H6           1.8520    -4.2100    -0.0220 h1         1 BBV       0.025200
     32 H6A          2.4200    -3.4690     1.4770 h1         1 BBV       0.025200
     33 HO6          0.6540    -4.9560     1.8090 ho         1 BBV       0.504000
     34 H8           0.4650     4.2390    -0.9570 hc         1 BBV       0.060033
     35 H8A          1.0800     5.0180     0.5050 hc         1 BBV       0.060033
     36 H8B          2.0960     4.9140    -0.9220 hc         1 BBV       0.060033
     37 H9          -3.8250    -1.8550     0.0970 ha         1 BBV       0.113500
     38 H10         -2.3710     2.1620     0.3720 ha         1 BBV       0.113500
     39 H11         -5.8310    -1.0490    -1.0880 ha         1 BBV       0.112500
     40 H12         -4.3660     2.9650    -0.8220 ha         1 BBV       0.112500
     41 H13         -6.1080     1.3670    -1.5540 ha         1 BBV       0.112000
     42 H7          -1.7780    -1.4820     1.1500 h1         1 BBV       0.044700
     43 H7'A        -1.7200     0.0250     2.0650 h1         1 BBV       0.044700
@<TRIPOS>BOND
     1     1     2 1   
     2     1     3 1   
     3     1    10 1   
     4     1    23 1   
     5     2    22 1   
     6     3     4 1   
     7     3     5 1   
     8     3    24 1   
     9     4    13 1   
    10     4    25 1   
    11     5     6 1   
    12     5     7 1   
    13     5    26 1   
    14     6    27 1   
    15     7     8 1   
    16     7     9 1   
    17     7    28 1   
    18     8    29 1   
    19     9    10 1   
    20     9    11 1   
    21     9    30 1   
    22    11    12 1   
    23    11    31 1   
    24    11    32 1   
    25    12    33 1   
    26    13    14 2   
    27    13    15 1   
    28    15    34 1   
    29    15    35 1   
    30    15    36 1   
    31    16    17 ar  
    32    16    18 ar  
    33    16    22 1   
    34    17    19 ar  
    35    17    37 1   
    36    18    20 ar  
    37    18    38 1   
    38    19    21 ar  
    39    19    39 1   
    40    20    21 ar  
    41    20    40 1   
    42    21    41 1   
    43    22    42 1   
    44    22    43 1   
@<TRIPOS>SUBSTRUCTURE
     1 BBV         1 TEMP              0 ****  ****    0 ROOT
