@<TRIPOS>MOLECULE
BBV
   43    44     1     0     0
SMALL
No Charge or Current Charge


@<TRIPOS>ATOM
      1 C1           0.7730     0.1800     1.0130 c6         1 BBV       0.370300
      2 O1          -0.5240     0.3150     0.3990 os         1 BBV      -0.489000
      3 C2           1.9080     0.7060     0.0760 c6         1 BBV       0.095700
      4 N2           1.7000     2.1200    -0.3180 ns         1 BBV      -0.493900
      5 C3           2.0030    -0.2200    -1.1720 c6         1 BBV       0.157300
      6 O3           3.0710     0.1830    -2.0450 oh         1 BBV      -0.647000
      7 C4           2.2100    -1.7030    -0.7470 c6         1 BBV       0.103300
      8 O4           2.2770    -2.5410    -1.9250 oh         1 BBV      -0.722000
      9 C5           1.0490    -2.1180     0.2110 c6         1 BBV       0.142300
     10 O5           1.0020    -1.2090     1.3450 os         1 BBV      -0.460000
     11 C6           1.2010    -3.5750     0.7610 c3         1 BBV       0.168600
     12 O6           0.1630    -3.9450     1.6890 oh         1 BBV      -0.707000
     13 C7           1.8560     3.2050     0.5070 c          1 BBV       0.610100
     14 O7           2.1750     3.0890     1.6810 o          1 BBV      -0.604100
     15 C8           1.5990     4.5550    -0.1470 c3         1 BBV      -0.179100
     16 C9          -2.9200     0.2050     0.4110 ca         1 BBV      -0.090300
     17 C10         -3.4570    -0.8760    -0.3160 ca         1 BBV      -0.092500
     18 C11         -3.5630     1.4580     0.3640 ca         1 BBV      -0.092500
     19 C12         -4.6270    -0.7070    -1.0780 ca         1 BBV      -0.114000
     20 C13         -4.7320     1.6270    -0.3990 ca         1 BBV      -0.114000
     21 C14         -5.2650     0.5450    -1.1190 ca         1 BBV      -0.104000
     22 C15         -1.6540     0.0210     1.2350 c3         1 BBV       0.208900
     23 H1           0.7920     0.7740     1.9400 h2         1 BBV       0.082700
     24 H2           2.8560     0.6420     0.6300 h1         1 BBV       0.107700
     25 HN2          1.4490     2.3150    -1.2800 hn         1 BBV       0.322500
     26 H3           1.0470    -0.1560    -1.7160 h1         1 BBV       0.057700
     27 HO3          3.2190    -0.5970    -2.6270 ho         1 BBV       0.455000
     28 H4           3.1550    -1.7690    -0.1870 h1         1 BBV       0.054700
     29 HO4          2.7730    -3.3600    -1.6840 ho         1 BBV       0.510000
     30 H5           0.0940    -2.0630    -0.3320 h1         1 BBV       0.075700
     31 H6           1.1990    -4.2690    -0.0900 h1         1 BBV       0.025200
     32 H6A          2.1830    -3.6570     1.2470 h1         1 BBV       0.025200
     33 HO6          0.3930    -4.8380     2.0370 ho         1 BBV       0.504000
     34 H8           0.5960     4.5520    -0.5880 hc         1 BBV       0.060033
     35 H8A          1.7340     5.3930     0.5460 hc         1 BBV       0.060033
     36 H8B          2.2410     4.6520    -1.0300 hc         1 BBV       0.060033
     37 H9          -2.9670    -1.8470    -0.2910 ha         1 BBV       0.113500
     38 H10         -3.1540     2.3020     0.9160 ha         1 BBV       0.113500
     39 H11         -5.0370    -1.5450    -1.6370 ha         1 BBV       0.112500
     40 H12         -5.2240     2.5970    -0.4310 ha         1 BBV       0.112500
     41 H13         -6.1700     0.6750    -1.7090 ha         1 BBV       0.112000
     42 H7          -1.6090    -1.0110     1.6070 h1         1 BBV       0.044700
     43 H7'A        -1.6790     0.6920     2.1050 h1         1 BBV       0.044700
@<TRIPOS>BOND
     1     1     2 1   
     2     1     3 1   
     3     1    10 1   
     4     1    23 1   
     5     2    22 1   
     6     3     4 1   
     7     3     5 1   
     8     3    24 1   
     9     4    13 1   
    10     4    25 1   
    11     5     6 1   
    12     5     7 1   
    13     5    26 1   
    14     6    27 1   
    15     7     8 1   
    16     7     9 1   
    17     7    28 1   
    18     8    29 1   
    19     9    10 1   
    20     9    11 1   
    21     9    30 1   
    22    11    12 1   
    23    11    31 1   
    24    11    32 1   
    25    12    33 1   
    26    13    14 2   
    27    13    15 1   
    28    15    34 1   
    29    15    35 1   
    30    15    36 1   
    31    16    17 ar  
    32    16    18 ar  
    33    16    22 1   
    34    17    19 ar  
    35    17    37 1   
    36    18    20 ar  
    37    18    38 1   
    38    19    21 ar  
    39    19    39 1   
    40    20    21 ar  
    41    20    40 1   
    42    21    41 1   
    43    22    42 1   
    44    22    43 1   
@<TRIPOS>SUBSTRUCTURE
     1 BBV         1 TEMP              0 ****  ****    0 ROOT
