@<TRIPOS>MOLECULE
BBW
   21    22     1     0     0
SMALL
abcg2


@<TRIPOS>ATOM
      1 N1           2.4070    -1.8620    -0.0730 nv         1 BBW      -1.073900
      2 C1           1.8290    -0.6560    -0.0280 ca         1 BBW       0.406900
      3 C2           0.4020    -0.5030    -0.0260 ca         1 BBW      -0.184000
      4 C3          -0.5230    -1.5610    -0.0750 ca         1 BBW      -0.068000
      5 N2           2.6230     0.3990    -0.0050 nb         1 BBW      -0.294000
      6 C4           2.0450     1.6050     0.0320 ca         1 BBW       0.171900
      7 N3           0.7730     1.8880     0.0560 nb         1 BBW      -0.213000
      8 C5          -0.0710     0.8230     0.0250 ca         1 BBW       0.058000
      9 C6          -1.4610     1.0540     0.0440 ca         1 BBW      -0.103000
     10 C7          -2.3590     0.0160     0.0030 ca         1 BBW      -0.044300
     11 C8          -3.8380     0.2550     0.0130 c3         1 BBW      -0.051800
     12 C9          -1.8670    -1.3060    -0.0600 ca         1 BBW      -0.128000
     13 H1           1.8990    -2.7140     0.0700 hn         1 BBW       0.494500
     14 H2           3.4060    -1.9200     0.0140 hn         1 BBW       0.494500
     15 H3          -0.1980    -2.5920    -0.1310 ha         1 BBW       0.104000
     16 H4           2.7320     2.4440     0.0490 h5         1 BBW       0.043100
     17 H5          -1.8000     2.0810     0.0920 ha         1 BBW       0.133000
     18 H6          -4.2870    -0.0300    -0.9400 hc         1 BBW       0.046033
     19 H7          -4.3270    -0.3390     0.7870 hc         1 BBW       0.046033
     20 H8          -4.0780     1.3010     0.1940 hc         1 BBW       0.046033
     21 H9          -2.5670    -2.1310    -0.0970 ha         1 BBW       0.114000
@<TRIPOS>BOND
     1     1     2 1   
     2     1    13 1   
     3     1    14 1   
     4     2     3 ar  
     5     2     5 ar  
     6     3     4 ar  
     7     3     8 ar  
     8     4    12 ar  
     9     4    15 1   
    10     5     6 ar  
    11     6     7 ar  
    12     6    16 1   
    13     7     8 ar  
    14     8     9 ar  
    15     9    10 ar  
    16     9    17 1   
    17    10    11 1   
    18    10    12 ar  
    19    11    18 1   
    20    11    19 1   
    21    11    20 1   
    22    12    21 1   
@<TRIPOS>SUBSTRUCTURE
     1 BBW         1 TEMP              0 ****  ****    0 ROOT
