@<TRIPOS>MOLECULE
BBW
   21    22     1     0     0
SMALL
No Charge or Current Charge


@<TRIPOS>ATOM
      1 N1           2.4230    -1.8740    -0.0800 nv         1 BBW      -1.073900
      2 C1           1.8110    -0.6580    -0.0590 ca         1 BBW       0.406900
      3 C2           0.4080    -0.4860    -0.0400 ca         1 BBW      -0.184000
      4 C3          -0.5010    -1.5680    -0.0560 ca         1 BBW      -0.068000
      5 N2           2.6580     0.3770    -0.0490 nb         1 BBW      -0.294000
      6 C4           2.1000     1.6030    -0.0200 ca         1 BBW       0.171900
      7 N3           0.7820     1.8860     0.0020 nb         1 BBW      -0.213000
      8 C5          -0.0780     0.8450    -0.0080 ca         1 BBW       0.058000
      9 C6          -1.4670     1.0680     0.0130 ca         1 BBW      -0.103000
     10 C7          -2.3740    -0.0080     0.0030 ca         1 BBW      -0.044300
     11 C8          -3.8720     0.2530     0.0210 c3         1 BBW      -0.051800
     12 C9          -1.8830    -1.3250    -0.0350 ca         1 BBW      -0.128000
     13 H1           1.8850    -2.6950     0.1810 hn         1 BBW       0.494500
     14 H2           3.4230    -1.9100     0.1080 hn         1 BBW       0.494500
     15 H3          -0.1510    -2.5960    -0.0880 ha         1 BBW       0.104000
     16 H4           2.7820     2.4520    -0.0120 h5         1 BBW       0.043100
     17 H5          -1.8430     2.0880     0.0360 ha         1 BBW       0.133000
     18 H6          -4.2600     0.3750    -0.9970 hc         1 BBW       0.046033
     19 H7          -4.4170    -0.5750     0.4910 hc         1 BBW       0.046033
     20 H8          -4.1120     1.1640     0.5830 hc         1 BBW       0.046033
     21 H9          -2.5750    -2.1640    -0.0490 ha         1 BBW       0.114000
@<TRIPOS>BOND
     1     1     2 1   
     2     1    13 1   
     3     1    14 1   
     4     2     3 ar  
     5     2     5 ar  
     6     3     4 ar  
     7     3     8 ar  
     8     4    12 ar  
     9     4    15 1   
    10     5     6 ar  
    11     6     7 ar  
    12     6    16 1   
    13     7     8 ar  
    14     8     9 ar  
    15     9    10 ar  
    16     9    17 1   
    17    10    11 1   
    18    10    12 ar  
    19    11    18 1   
    20    11    19 1   
    21    11    20 1   
    22    12    21 1   
@<TRIPOS>SUBSTRUCTURE
     1 BBW         1 TEMP              0 ****  ****    0 ROOT
