@<TRIPOS>MOLECULE
BBX
    8     7     1     0     0
SMALL
abcg2


@<TRIPOS>ATOM
      1 BR1          0.0500     0.0950    -0.6420 br         1 BBX      -0.286000
      2 C1          -0.6670     0.0090     1.1980 c3         1 BBX       0.097600
      3 C2           0.4440    -0.0080     2.2180 c3         1 BBX      -0.093100
      4 H11         -1.2770    -0.8910     1.2400 h1         1 BBX       0.069700
      5 H12         -1.3120     0.8790     1.3080 h1         1 BBX       0.069700
      6 H21         -0.0040    -0.0520     3.2130 hc         1 BBX       0.047033
      7 H22          1.0880    -0.8780     2.1040 hc         1 BBX       0.047033
      8 H23          1.0560     0.8910     2.1680 hc         1 BBX       0.047033
@<TRIPOS>BOND
     1     1     2 1   
     2     2     3 1   
     3     2     4 1   
     4     2     5 1   
     5     3     6 1   
     6     3     7 1   
     7     3     8 1   
@<TRIPOS>SUBSTRUCTURE
     1 BBX         1 TEMP              0 ****  ****    0 ROOT
