@<TRIPOS>MOLECULE
BBX
    8     7     1     0     0
SMALL
No Charge or Current Charge


@<TRIPOS>ATOM
      1 Br1          0.0660     0.0940    -0.6650 br         1 BBX      -0.286000
      2 C1          -0.6780     0.0100     1.1810 c3         1 BBX       0.097600
      3 C2           0.4410    -0.0090     2.2360 c3         1 BBX      -0.093100
      4 H11         -1.2870    -0.9010     1.2420 h1         1 BBX       0.069700
      5 H12         -1.3210     0.8900     1.3090 h1         1 BBX       0.069700
      6 H21          0.0130    -0.0550     3.2450 hc         1 BBX       0.047033
      7 H22          1.0890    -0.8820     2.0950 hc         1 BBX       0.047033
      8 H23          1.0550     0.8970     2.1630 hc         1 BBX       0.047033
@<TRIPOS>BOND
     1     1     2 1   
     2     2     3 1   
     3     2     4 1   
     4     2     5 1   
     5     3     6 1   
     6     3     7 1   
     7     3     8 1   
@<TRIPOS>SUBSTRUCTURE
     1 BBX         1 TEMP              0 ****  ****    0 ROOT
