@<TRIPOS>MOLECULE
BBY
   27    29     1     0     0
SMALL
No Charge or Current Charge


@<TRIPOS>ATOM
      1 C1          -0.3760     1.6390    -0.3520 ca         1 BBY      -0.079000
      2 C2          -0.8470     0.3470    -0.0130 ca         1 BBY      -0.026000
      3 C3           0.0930    -0.6870     0.2420 ca         1 BBY      -0.059000
      4 C4           1.4790    -0.4360     0.1710 ca         1 BBY      -0.022900
      5 C5           1.9030     0.8580    -0.1570 ca         1 BBY       0.083100
      6 C6           1.0060     1.8560    -0.4100 ca         1 BBY       0.052100
      7 O7           1.6120     3.0270    -0.7330 os         1 BBY      -0.342100
      8 C8           3.0400     2.7090    -0.5710 c5         1 BBY       0.372600
      9 O9           3.1910     1.2740    -0.2850 os         1 BBY      -0.324100
     10 C10         -2.2830     0.0640     0.0610 cc         1 BBY      -0.075000
     11 N11         -3.3650     0.8710     0.4340 na         1 BBY       0.135800
     12 N12         -4.5850     0.2230     0.3050 nc         1 BBY      -0.573800
     13 C13         -4.2220    -0.9450    -0.1440 cd         1 BBY       0.464900
     14 C14         -2.8460    -1.1190    -0.3200 cd         1 BBY      -0.252000
     15 Br15         2.7410    -1.8340     0.5170 br         1 BBY      -0.055100
     16 C16         -3.3170     2.2410     0.9700 c3         1 BBY       0.073900
     17 N17         -5.1440    -1.8810    -0.4150 nv         1 BBY      -1.001900
     18 H1          -1.0580     2.4500    -0.5860 ha         1 BBY       0.140000
     19 H3          -0.2520    -1.6840     0.5050 ha         1 BBY       0.145000
     20 H8           3.5820     2.9610    -1.4900 h2         1 BBY       0.071200
     21 H8A          3.4410     3.2850     0.2710 h2         1 BBY       0.071200
     22 H14         -2.3450    -2.0020    -0.6970 ha         1 BBY       0.148000
     23 H16         -3.3250     2.9590     0.1420 h1         1 BBY       0.056700
     24 H16A        -4.1880     2.4200     1.6130 h1         1 BBY       0.056700
     25 H16B        -2.4040     2.3730     1.5630 h1         1 BBY       0.056700
     26 HN17        -6.1130    -1.5850    -0.4530 hn         1 BBY       0.442000
     27 HN1A        -4.8770    -2.6790    -0.9830 hn         1 BBY       0.442000
@<TRIPOS>BOND
     1     1     2 ar  
     2     1     6 ar  
     3     1    18 1   
     4     2     3 ar  
     5     2    10 1   
     6     3     4 ar  
     7     3    19 1   
     8     4     5 ar  
     9     4    15 1   
    10     5     6 ar  
    11     5     9 1   
    12     6     7 1   
    13     7     8 1   
    14     8     9 1   
    15     8    20 1   
    16     8    21 1   
    17    10    11 1   
    18    10    14 2   
    19    11    12 1   
    20    11    16 1   
    21    12    13 2   
    22    13    14 1   
    23    13    17 1   
    24    14    22 1   
    25    16    23 1   
    26    16    24 1   
    27    16    25 1   
    28    17    26 1   
    29    17    27 1   
@<TRIPOS>SUBSTRUCTURE
     1 BBY         1 TEMP              0 ****  ****    0 ROOT
