@<TRIPOS>MOLECULE
BBY
   27    29     1     0     0
SMALL
bcc


@<TRIPOS>ATOM
      1 C1          -0.4070     1.6240    -0.4240 ca         1 BBY      -0.097000
      2 C2          -0.8360     0.3560     0.0130 ca         1 BBY      -0.026000
      3 C3           0.0860    -0.5990     0.4270 ca         1 BBY      -0.077000
      4 C4           1.4560    -0.3220     0.4220 ca         1 BBY      -0.022900
      5 C5           1.8640     0.9200     0.0060 ca         1 BBY       0.083100
      6 C6           0.9410     1.8680    -0.4060 ca         1 BBY       0.052100
      7 O7           1.5970     2.9980    -0.7520 os         1 BBY      -0.318900
      8 C8           2.9840     2.6880    -0.7180 c5         1 BBY       0.326200
      9 O9           3.1080     1.4250    -0.0660 os         1 BBY      -0.300900
     10 C10         -2.2560    -0.0030    -0.0010 cc         1 BBY      -0.024300
     11 N11         -3.2480     0.7800     0.4650 na         1 BBY       0.114400
     12 N12         -4.4550     0.2100     0.3070 nc         1 BBY      -0.573800
     13 C13         -4.2250    -0.9620    -0.2550 cd         1 BBY       0.530200
     14 C14         -2.8490    -1.1570    -0.4740 cd         1 BBY      -0.335300
     15 BR15         2.7180    -1.5880     0.9850 br         1 BBY      -0.055100
     16 C16         -3.1670     2.0760     1.0910 c3         1 BBY       0.044600
     17 N17         -5.2490    -1.8560    -0.5090 nv         1 BBY      -0.891500
     18 H1          -1.1050     2.3710    -0.7770 ha         1 BBY       0.158000
     19 H3          -0.2630    -1.5650     0.7660 ha         1 BBY       0.163000
     20 H8           3.3760     2.6160    -1.7360 h2         1 BBY       0.071200
     21 H8A          3.5190     3.4480    -0.1490 h2         1 BBY       0.071200
     22 H14         -2.3580    -2.0010    -0.9320 ha         1 BBY       0.166000
     23 H16         -3.3130     2.8820     0.3710 h1         1 BBY       0.056700
     24 H16A        -3.9370     2.1440     1.8550 h1         1 BBY       0.056700
     25 H16B        -2.1980     2.2000     1.5670 h1         1 BBY       0.056700
     26 HN17        -6.1550    -1.4170    -0.5690 hn         1 BBY       0.386800
     27 HN1A        -5.0880    -2.4330    -1.3190 hn         1 BBY       0.386800
@<TRIPOS>BOND
     1     1     2 ar  
     2     1     6 ar  
     3     1    18 1   
     4     2     3 ar  
     5     2    10 1   
     6     3     4 ar  
     7     3    19 1   
     8     4     5 ar  
     9     4    15 1   
    10     5     6 ar  
    11     5     9 1   
    12     6     7 1   
    13     7     8 1   
    14     8     9 1   
    15     8    20 1   
    16     8    21 1   
    17    10    11 1   
    18    10    14 2   
    19    11    12 1   
    20    11    16 1   
    21    12    13 2   
    22    13    14 1   
    23    13    17 1   
    24    14    22 1   
    25    16    23 1   
    26    16    24 1   
    27    16    25 1   
    28    17    26 1   
    29    17    27 1   
@<TRIPOS>SUBSTRUCTURE
     1 BBY         1 TEMP              0 ****  ****    0 ROOT
