@<TRIPOS>MOLECULE
BBZ
   63    68     1     0     0
SMALL
bcc


@<TRIPOS>ATOM
      1 C            1.2670     0.0550    -8.3030 ca         1 BBZ       0.222600
      2 C1           0.0820    -0.0750    -5.7230 ca         1 BBZ      -0.189900
      3 C2           2.0370     0.1980    -7.1280 ca         1 BBZ      -0.223000
      4 C3           1.4540     0.1340    -5.8820 ca         1 BBZ      -0.046000
      5 C4          -0.1170    -0.1620    -8.1370 ca         1 BBZ      -0.223000
      6 C5          -0.6840    -0.2220    -6.8810 ca         1 BBZ      -0.046000
      7 N            1.8330     0.1240    -9.5350 nh         1 BBZ      -0.690000
      8 C6          -0.4900    -0.1270    -4.3890 cc         1 BBZ       0.498400
      9 C7          -0.7300    -0.0880    -2.2660 ca         1 BBZ       0.070400
     10 C8          -2.0100    -0.3160    -2.8020 ca         1 BBZ      -0.073200
     11 C9          -3.1340    -0.4690    -2.0020 ca         1 BBZ      -0.136000
     12 C10         -2.9450    -0.3840    -0.6350 ca         1 BBZ      -0.107000
     13 C11         -1.6750    -0.1510    -0.0730 ca         1 BBZ      -0.146900
     14 C12         -0.5580    -0.0050    -0.8900 ca         1 BBZ      -0.015000
     15 N1           0.1880     0.0240    -3.2770 nd         1 BBZ      -0.579100
     16 N2          -1.8190    -0.3370    -4.1530 na         1 BBZ      -0.262300
     17 C13         -1.5000    -0.0720     1.3750 cc         1 BBZ       0.485400
     18 C14         -0.6280    -0.0210     3.3260 ca         1 BBZ       0.099400
     19 C15         -2.0140     0.0980     3.5100 ca         1 BBZ      -0.105200
     20 C16         -2.5740     0.2070     4.7720 ca         1 BBZ      -0.110000
     21 C17         -1.7090     0.1970     5.8540 ca         1 BBZ      -0.160000
     22 C18         -0.3120     0.0550     5.7040 ca         1 BBZ       0.125600
     23 N3          -0.3420    -0.1260     1.9880 nd         1 BBZ      -0.584100
     24 N4          -2.5390     0.0600     2.2430 na         1 BBZ      -0.262300
     25 C19          0.2280    -0.0550     4.4230 ca         1 BBZ      -0.108000
     26 N5           0.5440    -0.0120     6.8140 nh         1 BBZ      -0.652000
     27 N6           2.0930     0.3350     9.1780 n3         1 BBZ      -0.715600
     28 C20         -0.0480    -0.1960     8.1220 c6         1 BBZ       0.196800
     29 C21          1.0130    -0.6270     9.1170 c6         1 BBZ       0.158300
     30 C22          2.6830     0.5030     7.8670 c6         1 BBZ       0.158300
     31 C23          1.6400     0.9440     6.8600 c6         1 BBZ       0.196800
     32 C24          3.0790    -0.0360    10.1660 c3         1 BBZ       0.152100
     33 CN1          3.2520     0.3610    -9.6710 c3         1 BBZ       0.220100
     34 CN2          1.0260    -0.0830   -10.7160 c3         1 BBZ       0.220100
     35 H2           3.1040     0.3580    -7.1860 ha         1 BBZ       0.133000
     36 H3           2.0790     0.2480    -5.0060 ha         1 BBZ       0.134500
     37 H4          -0.7640    -0.2800    -8.9950 ha         1 BBZ       0.133000
     38 H5          -1.7540    -0.3830    -6.8270 ha         1 BBZ       0.134500
     39 H9          -4.1150    -0.6540    -2.4180 ha         1 BBZ       0.136000
     40 H10         -3.8080    -0.5200     0.0030 ha         1 BBZ       0.121000
     41 H12          0.4190     0.1750    -0.4610 ha         1 BBZ       0.173000
     42 HN2         -2.5400    -0.4730    -4.8440 hn         1 BBZ       0.305700
     43 H16         -3.6410     0.3050     4.9200 ha         1 BBZ       0.132000
     44 H17         -2.1360     0.3080     6.8410 ha         1 BBZ       0.130000
     45 HN4         -3.5110     0.1710     2.0080 hn         1 BBZ       0.303700
     46 H19          1.2920    -0.1880     4.2730 ha         1 BBZ       0.151000
     47 H201        -0.8090    -0.9770     8.0710 h1         1 BBZ       0.042450
     48 H202        -0.5400     0.7190     8.4890 h1         1 BBZ       0.042450
     49 H211         1.3790    -1.6310     8.8360 h1         1 BBZ       0.038700
     50 H212         0.5550    -0.7160    10.1050 h1         1 BBZ       0.038700
     51 H221         3.4680     1.2620     7.9210 h1         1 BBZ       0.038700
     52 H222         3.1550    -0.4280     7.5080 h1         1 BBZ       0.038700
     53 H231         2.1120     1.0220     5.8820 h1         1 BBZ       0.042450
     54 H232         1.2740     1.9480     7.1280 h1         1 BBZ       0.042450
     55 H241         3.8600     0.7240    10.2240 h1         1 BBZ       0.030700
     56 H242         2.6130    -0.1120    11.1500 h1         1 BBZ       0.030700
     57 H243         3.5660    -1.0010     9.9520 h1         1 BBZ       0.030700
     58 HN11         3.5020     0.4450   -10.7240 h1         1 BBZ       0.038200
     59 HN12         3.5560     1.2910    -9.1840 h1         1 BBZ       0.038200
     60 HN13         3.8510    -0.4510    -9.2480 h1         1 BBZ       0.038200
     61 HN21         0.2480     0.6770   -10.8230 h1         1 BBZ       0.038200
     62 HN22         1.6590    -0.0340   -11.5970 h1         1 BBZ       0.038200
     63 HN23         0.5400    -1.0620   -10.7130 h1         1 BBZ       0.038200
@<TRIPOS>BOND
     1     1     3 ar  
     2     1     5 ar  
     3     1     7 1   
     4     2     4 ar  
     5     2     6 ar  
     6     2     8 1   
     7     3     4 ar  
     8     3    35 1   
     9     4    36 1   
    10     5     6 ar  
    11     5    37 1   
    12     6    38 1   
    13     7    33 1   
    14     7    34 1   
    15     8    15 2   
    16     8    16 1   
    17     9    10 ar  
    18     9    14 ar  
    19     9    15 1   
    20    10    11 ar  
    21    10    16 1   
    22    11    12 ar  
    23    11    39 1   
    24    12    13 ar  
    25    12    40 1   
    26    13    14 ar  
    27    13    17 1   
    28    14    41 1   
    29    16    42 1   
    30    17    23 2   
    31    17    24 1   
    32    18    19 ar  
    33    18    23 1   
    34    18    25 ar  
    35    19    20 ar  
    36    19    24 1   
    37    20    21 ar  
    38    20    43 1   
    39    21    22 ar  
    40    21    44 1   
    41    22    25 ar  
    42    22    26 1   
    43    24    45 1   
    44    25    46 1   
    45    26    28 1   
    46    26    31 1   
    47    27    29 1   
    48    27    30 1   
    49    27    32 1   
    50    28    29 1   
    51    28    47 1   
    52    28    48 1   
    53    29    49 1   
    54    29    50 1   
    55    30    31 1   
    56    30    51 1   
    57    30    52 1   
    58    31    53 1   
    59    31    54 1   
    60    32    55 1   
    61    32    56 1   
    62    32    57 1   
    63    33    58 1   
    64    33    59 1   
    65    33    60 1   
    66    34    61 1   
    67    34    62 1   
    68    34    63 1   
@<TRIPOS>SUBSTRUCTURE
     1 BBZ         1 TEMP              0 ****  ****    0 ROOT
