@<TRIPOS>MOLECULE
BBZ
   63    68     1     0     0
SMALL
No Charge or Current Charge


@<TRIPOS>ATOM
      1 C            1.2830    -0.0330    -8.3890 ca         1 BBZ       0.361000
      2 C1           0.1170    -0.0340    -5.7910 ca         1 BBZ      -0.189900
      3 C2           2.0910    -0.0110    -7.2370 ca         1 BBZ      -0.205000
      4 C3           1.5180    -0.0120    -5.9540 ca         1 BBZ      -0.028000
      5 C4          -0.1140    -0.0560    -8.2260 ca         1 BBZ      -0.205000
      6 C5          -0.6940    -0.0560    -6.9460 ca         1 BBZ      -0.028000
      7 N            1.8630    -0.0330    -9.6830 nh         1 BBZ      -0.828400
      8 C6          -0.4740    -0.0340    -4.4440 cc         1 BBZ       0.498400
      9 C7          -0.7490    -0.0210    -2.2980 ca         1 BBZ       0.070400
     10 C8          -1.9990    -0.0480    -2.8380 ca         1 BBZ      -0.073200
     11 C9          -3.1610    -0.0630    -2.0630 ca         1 BBZ      -0.118000
     12 C10         -3.0110    -0.0490    -0.6600 ca         1 BBZ      -0.089000
     13 C11         -1.7160    -0.0200    -0.0660 ca         1 BBZ      -0.146900
     14 C12         -0.5710    -0.0060    -0.9070 ca         1 BBZ       0.003000
     15 N1           0.2280    -0.0110    -3.2910 nd         1 BBZ      -0.579100
     16 N2          -1.8440    -0.0570    -4.1880 na         1 BBZ      -0.312600
     17 C13         -1.5500    -0.0050     1.3940 cc         1 BBZ       0.485400
     18 C14         -0.7090     0.0280     3.3860 ca         1 BBZ       0.099400
     19 C15         -2.0610     0.0030     3.5490 ca         1 BBZ      -0.105200
     20 C16         -2.6750    -0.0000     4.8040 ca         1 BBZ      -0.092000
     21 C17         -1.8330     0.0230     5.9360 ca         1 BBZ      -0.142000
     22 C18         -0.4190     0.0510     5.7930 ca         1 BBZ       0.264000
     23 N3          -0.3630     0.0220     2.0380 nd         1 BBZ      -0.584100
     24 N4          -2.6060    -0.0170     2.3030 na         1 BBZ      -0.312600
     25 C19          0.1450     0.0520     4.4950 ca         1 BBZ      -0.090000
     26 N5           0.4320     0.0740     6.9280 nh         1 BBZ      -0.790400
     27 N6           2.1510     0.2770     9.3650 n3         1 BBZ      -0.715600
     28 C20         -0.0160    -0.4730     8.2500 c6         1 BBZ       0.196800
     29 C21          1.1810    -0.8460     9.1870 c6         1 BBZ       0.158300
     30 C22          2.6340     0.7430     8.0290 c6         1 BBZ       0.158300
     31 C23          1.4680     1.1490     7.0680 c6         1 BBZ       0.196800
     32 C24          3.2580    -0.0650    10.2840 c3         1 BBZ       0.152100
     33 CN1          3.1880     0.5820    -9.9370 c3         1 BBZ       0.220100
     34 CN2          1.1730    -0.6490   -10.8410 c3         1 BBZ       0.220100
     35 H2           3.1720    -0.0050    -7.3270 ha         1 BBZ       0.115000
     36 H3           2.1750     0.0030    -5.0860 ha         1 BBZ       0.116500
     37 H4          -0.7660    -0.0620    -9.0940 ha         1 BBZ       0.115000
     38 H5          -1.7790    -0.0700    -6.8670 ha         1 BBZ       0.116500
     39 H9          -4.1470    -0.0850    -2.5220 ha         1 BBZ       0.118000
     40 H10         -3.9060    -0.0600    -0.0430 ha         1 BBZ       0.103000
     41 H12          0.4340     0.0160    -0.4950 ha         1 BBZ       0.155000
     42 HN2         -2.5750    -0.0760    -4.8840 hn         1 BBZ       0.356000
     43 H16         -3.7580    -0.0190     4.9070 ha         1 BBZ       0.114000
     44 H17         -2.2860     0.0310     6.9230 ha         1 BBZ       0.112000
     45 HN4         -3.5880    -0.0370     2.0670 hn         1 BBZ       0.354000
     46 H19          1.2200     0.0580     4.3550 ha         1 BBZ       0.133000
     47 H201        -0.6270    -1.3760     8.1010 h1         1 BBZ       0.042450
     48 H202        -0.6450     0.2680     8.7640 h1         1 BBZ       0.042450
     49 H211         1.6940    -1.7210     8.7600 h1         1 BBZ       0.038700
     50 H212         0.7770    -1.1580    10.1610 h1         1 BBZ       0.038700
     51 H221         3.3040     1.6070     8.1470 h1         1 BBZ       0.038700
     52 H222         3.2210    -0.0510     7.5440 h1         1 BBZ       0.038700
     53 H231         1.9020     1.4040     6.0910 h1         1 BBZ       0.042450
     54 H232         0.9950     2.0630     7.4580 h1         1 BBZ       0.042450
     55 H241         3.9230     0.7970    10.4260 h1         1 BBZ       0.030700
     56 H242         2.8670    -0.3580    11.2670 h1         1 BBZ       0.030700
     57 H243         3.8540    -0.8980     9.8880 h1         1 BBZ       0.030700
     58 HN11         3.2810     0.8880   -10.9880 h1         1 BBZ       0.038200
     59 HN12         3.3220     1.4800    -9.3190 h1         1 BBZ       0.038200
     60 HN13         3.9930    -0.1280    -9.7090 h1         1 BBZ       0.038200
     61 HN21         0.4660     0.0610   -11.2910 h1         1 BBZ       0.038200
     62 HN22         1.8960    -0.9550   -11.6100 h1         1 BBZ       0.038200
     63 HN23         0.6220    -1.5470   -10.5300 h1         1 BBZ       0.038200
@<TRIPOS>BOND
     1     1     3 ar  
     2     1     5 ar  
     3     1     7 1   
     4     2     4 ar  
     5     2     6 ar  
     6     2     8 1   
     7     3     4 ar  
     8     3    35 1   
     9     4    36 1   
    10     5     6 ar  
    11     5    37 1   
    12     6    38 1   
    13     7    33 1   
    14     7    34 1   
    15     8    15 2   
    16     8    16 1   
    17     9    10 ar  
    18     9    14 ar  
    19     9    15 1   
    20    10    11 ar  
    21    10    16 1   
    22    11    12 ar  
    23    11    39 1   
    24    12    13 ar  
    25    12    40 1   
    26    13    14 ar  
    27    13    17 1   
    28    14    41 1   
    29    16    42 1   
    30    17    23 2   
    31    17    24 1   
    32    18    19 ar  
    33    18    23 1   
    34    18    25 ar  
    35    19    20 ar  
    36    19    24 1   
    37    20    21 ar  
    38    20    43 1   
    39    21    22 ar  
    40    21    44 1   
    41    22    25 ar  
    42    22    26 1   
    43    24    45 1   
    44    25    46 1   
    45    26    28 1   
    46    26    31 1   
    47    27    29 1   
    48    27    30 1   
    49    27    32 1   
    50    28    29 1   
    51    28    47 1   
    52    28    48 1   
    53    29    49 1   
    54    29    50 1   
    55    30    31 1   
    56    30    51 1   
    57    30    52 1   
    58    31    53 1   
    59    31    54 1   
    60    32    55 1   
    61    32    56 1   
    62    32    57 1   
    63    33    58 1   
    64    33    59 1   
    65    33    60 1   
    66    34    61 1   
    67    34    62 1   
    68    34    63 1   
@<TRIPOS>SUBSTRUCTURE
     1 BBZ         1 TEMP              0 ****  ****    0 ROOT
