@<TRIPOS>MOLECULE
BC0
   46    49     1     0     0
SMALL
abcg2


@<TRIPOS>ATOM
      1 N1          -6.1820     1.9460    -0.4460 nh         1 BC0      -0.665400
      2 N3          -0.1840     0.8780    -0.1080 nb         1 BC0      -0.216000
      3 C4          -3.8090     0.5730    -0.0070 cc         1 BC0       0.057800
      4 C5          -3.8090     1.9320    -0.1110 cd         1 BC0      -0.154600
      5 C6          -1.5060     1.0560    -0.1060 ca         1 BC0       0.182300
      6 C7          -2.4670     0.0510    -0.0340 ca         1 BC0      -0.231800
      7 C8          -1.9360    -1.2690    -0.0210 ca         1 BC0       0.437900
      8 C10          2.6800     0.8370    -0.0150 c3         1 BC0       0.094900
      9 C13          6.1820     0.2240     1.3000 ca         1 BC0      -0.105000
     10 C15          6.2610     0.2470    -1.1140 ca         1 BC0      -0.105000
     11 C17         -2.2110    -3.7130    -0.0760 c3         1 BC0       0.253000
     12 C20         -5.0510     2.7590    -0.0320 c6         1 BC0       0.304000
     13 C1          -7.4190     2.6710    -0.6020 c3         1 BC0       0.201100
     14 C11          4.1600     0.6030     0.0300 ca         1 BC0      -0.081300
     15 C12          4.8180     0.4640     1.2480 ca         1 BC0      -0.085000
     16 C14          6.8920     0.1170     0.1130 ca         1 BC0       0.125000
     17 C16          4.8950     0.4860    -1.1460 ca         1 BC0      -0.085000
     18 C18         -3.2530    -4.6670     0.4150 c2         1 BC0      -0.246200
     19 C19         -3.7400    -5.6660    -0.3080 c2         1 BC0      -0.298000
     20 C2          -6.1980     0.6180    -0.1590 c2         1 BC0       0.060000
     21 C3          -5.0840    -0.1070     0.0860 ce         1 BC0      -0.306000
     22 C9           0.1720    -0.3830    -0.0300 ca         1 BC0       0.286300
     23 N2          -0.6190    -1.4510    -0.0000 nb         1 BC0      -0.275000
     24 N4          -2.7210    -2.3560    -0.0230 nu         1 BC0      -0.913100
     25 S1          -2.2260     2.6250    -0.1990 ss         1 BC0      -0.096900
     26 S2           1.8770    -0.7980     0.0240 ss         1 BC0      -0.313300
     27 CL           8.5990    -0.1790     0.1670 cl         1 BC0      -0.204000
     28 H1           2.3400     1.4200     0.8400 h1         1 BC0       0.084700
     29 H2           2.3850     1.3550    -0.9270 h1         1 BC0       0.084700
     30 H4           6.8220     0.1630    -2.0340 ha         1 BC0       0.130000
     31 H5          -1.3290    -3.7680     0.5650 h1         1 BC0       0.065200
     32 H6          -1.8910    -3.9770    -1.0890 h1         1 BC0       0.065200
     33 H7          -4.9920     3.6290    -0.6920 h1         1 BC0       0.039200
     34 H8          -5.2020     3.1540     0.9880 h1         1 BC0       0.039200
     35 H9          -8.2070     2.0010    -0.9400 h1         1 BC0       0.038700
     36 H10         -7.7410     3.1420     0.3340 h1         1 BC0       0.038700
     37 H11         -7.2980     3.4560    -1.3490 h1         1 BC0       0.038700
     38 H12          4.2620     0.5510     2.1740 ha         1 BC0       0.122500
     39 H13          4.4000     0.5900    -2.1040 ha         1 BC0       0.122500
     40 H14         -3.6010    -4.5110     1.4320 ha         1 BC0       0.179000
     41 H15         -3.4150    -5.8450    -1.3260 ha         1 BC0       0.165500
     42 H16         -4.4780    -6.3480     0.0960 ha         1 BC0       0.165500
     43 H17         -7.1710     0.1440    -0.1840 h4         1 BC0       0.185000
     44 H18         -5.1830    -1.1550     0.3170 ha         1 BC0       0.188000
     45 H19         -3.6850    -2.2330    -0.2830 hn         1 BC0       0.499000
     46 H3           6.6840     0.1210     2.2520 ha         1 BC0       0.130000
@<TRIPOS>BOND
     1     1    12 1   
     2     1    13 1   
     3     1    20 1   
     4     2     5 ar  
     5     2    22 ar  
     6     3     4 2   
     7     3     6 1   
     8     3    21 1   
     9     4    12 1   
    10     4    25 1   
    11     5     6 ar  
    12     5    25 1   
    13     6     7 ar  
    14     7    23 ar  
    15     7    24 1   
    16     8    14 1   
    17     8    26 1   
    18     8    28 1   
    19     8    29 1   
    20     9    15 ar  
    21     9    16 ar  
    22     9    46 1   
    23    10    16 ar  
    24    10    17 ar  
    25    10    30 1   
    26    11    18 1   
    27    11    24 1   
    28    11    31 1   
    29    11    32 1   
    30    12    33 1   
    31    12    34 1   
    32    13    35 1   
    33    13    36 1   
    34    13    37 1   
    35    14    15 ar  
    36    14    17 ar  
    37    15    38 1   
    38    16    27 1   
    39    17    39 1   
    40    18    19 2   
    41    18    40 1   
    42    19    41 1   
    43    19    42 1   
    44    20    21 2   
    45    20    43 1   
    46    21    44 1   
    47    22    23 ar  
    48    22    26 1   
    49    24    45 1   
@<TRIPOS>SUBSTRUCTURE
     1 BC0         1 TEMP              0 ****  ****    0 ROOT
