@<TRIPOS>MOLECULE
BC0
   46    49     1     0     0
SMALL
No Charge or Current Charge


@<TRIPOS>ATOM
      1 N1          -6.2070     1.7030    -0.4400 nh         1 BC0      -0.665400
      2 N3          -0.1190     0.7740     0.0430 nb         1 BC0      -0.216000
      3 C4          -3.7500     0.4930     0.2200 cc         1 BC0       0.057800
      4 C5          -3.7550     1.8530    -0.0240 cd         1 BC0      -0.154600
      5 C6          -1.4420     0.9990     0.0660 ca         1 BC0       0.182300
      6 C7          -2.3800    -0.0090     0.2010 ca         1 BC0      -0.231800
      7 C8          -1.8920    -1.3270     0.2760 ca         1 BC0       0.437900
      8 C10          2.8280     0.7680     0.0040 c3         1 BC0       0.094900
      9 C13          6.4720     0.4860     1.1690 ca         1 BC0      -0.105000
     10 C15          6.4220     0.3100    -1.2570 ca         1 BC0      -0.105000
     11 C17         -2.3550    -3.8400     0.3090 c3         1 BC0       0.253000
     12 C20         -5.0570     2.6180    -0.1520 c6         1 BC0       0.304000
     13 C1          -7.4460     2.3210    -0.9570 c3         1 BC0       0.201100
     14 C11          4.3420     0.6150    -0.0160 ca         1 BC0      -0.081300
     15 C12          5.0730     0.6290     1.1880 ca         1 BC0      -0.085000
     16 C14          7.1440     0.3270    -0.0530 ca         1 BC0       0.125000
     17 C16          5.0230     0.4540    -1.2390 ca         1 BC0      -0.085000
     18 C18         -3.6320    -4.6440     0.3090 c2         1 BC0      -0.246200
     19 C19         -4.5150    -4.7170    -0.7030 c2         1 BC0      -0.298000
     20 C2          -6.1760     0.3860     0.0230 c2         1 BC0       0.060000
     21 C3          -5.0160    -0.2100     0.3680 ce         1 BC0      -0.306000
     22 C9           0.2610    -0.5170     0.1560 ca         1 BC0       0.286300
     23 N2          -0.5690    -1.5760     0.2620 nb         1 BC0      -0.275000
     24 N4          -2.7330    -2.4290     0.3110 nu         1 BC0      -0.913100
     25 S1          -2.1450     2.6130    -0.1190 ss         1 BC0      -0.096900
     26 S2           2.0120    -0.8870     0.1410 ss         1 BC0      -0.313300
     27 Cl           8.8940     0.1470    -0.0760 cl         1 BC0      -0.204000
     28 H1           2.5270     1.3920     0.8550 h1         1 BC0       0.084700
     29 H2           2.4910     1.2620    -0.9170 h1         1 BC0       0.084700
     30 H4           6.9450     0.1860    -2.2020 ha         1 BC0       0.130000
     31 H5          -1.7530    -4.0820     1.1970 h1         1 BC0       0.065200
     32 H6          -1.7590    -4.0820    -0.5830 h1         1 BC0       0.065200
     33 H7          -4.9700     3.3840    -0.9370 h1         1 BC0       0.039200
     34 H8          -5.2450     3.1450     0.7940 h1         1 BC0       0.039200
     35 H9          -7.8270     1.7480    -1.8130 h1         1 BC0       0.038700
     36 H10         -8.2190     2.3350    -0.1770 h1         1 BC0       0.038700
     37 H11         -7.2680     3.3530    -1.2860 h1         1 BC0       0.038700
     38 H12          4.5570     0.7480     2.1390 ha         1 BC0       0.122500
     39 H13          4.4690     0.4370    -2.1760 ha         1 BC0       0.122500
     40 H14         -3.8040    -5.1970     1.2350 ha         1 BC0       0.179000
     41 H15         -4.3620    -4.1770    -1.6400 ha         1 BC0       0.165500
     42 H16         -5.4210    -5.3220    -0.6310 ha         1 BC0       0.165500
     43 H17         -7.1410    -0.1230     0.1050 h4         1 BC0       0.185000
     44 H18         -5.0120    -1.2230     0.7630 ha         1 BC0       0.188000
     45 H19         -3.7010    -2.2300     0.0800 hn         1 BC0       0.499000
     46 H3           7.0330     0.4960     2.1000 ha         1 BC0       0.130000
@<TRIPOS>BOND
     1     1    12 1   
     2     1    13 1   
     3     1    20 1   
     4     2     5 ar  
     5     2    22 ar  
     6     3     4 2   
     7     3     6 1   
     8     3    21 1   
     9     4    12 1   
    10     4    25 1   
    11     5     6 ar  
    12     5    25 1   
    13     6     7 ar  
    14     7    23 ar  
    15     7    24 1   
    16     8    14 1   
    17     8    26 1   
    18     8    28 1   
    19     8    29 1   
    20     9    15 ar  
    21     9    16 ar  
    22     9    46 1   
    23    10    16 ar  
    24    10    17 ar  
    25    10    30 1   
    26    11    18 1   
    27    11    24 1   
    28    11    31 1   
    29    11    32 1   
    30    12    33 1   
    31    12    34 1   
    32    13    35 1   
    33    13    36 1   
    34    13    37 1   
    35    14    15 ar  
    36    14    17 ar  
    37    15    38 1   
    38    16    27 1   
    39    17    39 1   
    40    18    19 2   
    41    18    40 1   
    42    19    41 1   
    43    19    42 1   
    44    20    21 2   
    45    20    43 1   
    46    21    44 1   
    47    22    23 ar  
    48    22    26 1   
    49    24    45 1   
@<TRIPOS>SUBSTRUCTURE
     1 BC0         1 TEMP              0 ****  ****    0 ROOT
