@<TRIPOS>MOLECULE
BC1
   41    43     1     0     0
SMALL
No Charge or Current Charge


@<TRIPOS>ATOM
      1 O1           0.1160     2.6060    -4.7150 o          1 BC1      -0.732500
      2 C1          -0.1820     1.4300    -4.5840 c          1 BC1       0.723000
      3 O2          -0.8210     0.7950    -5.4090 o          1 BC1      -0.732500
      4 C2           0.2040     0.7300    -3.2770 c3         1 BC1      -0.232400
      5 C3          -0.9280     0.9310    -2.2550 c3         1 BC1       0.114000
      6 N1          -0.6040     0.3170    -0.9680 ns         1 BC1      -0.477900
      7 C4          -0.7920    -1.0130    -0.6480 c          1 BC1       0.609100
      8 O3          -1.3220    -1.7950    -1.4300 o          1 BC1      -0.603100
      9 C5          -0.2850    -1.4140     0.7590 c6         1 BC1       0.025700
     10 C6          -0.5190    -2.8550     1.0300 c1         1 BC1       0.338900
     11 N2          -0.6860    -3.9820     1.2790 n1         1 BC1      -0.476000
     12 C7          -1.0680    -0.5660     1.7940 ca         1 BC1      -0.119300
     13 C8          -2.3980    -0.9060     2.1470 ca         1 BC1      -0.049500
     14 C9          -3.1130    -0.1300     3.0720 ca         1 BC1      -0.144500
     15 C10         -2.5180     0.9980     3.6480 ca         1 BC1      -0.075500
     16 C11         -1.2140     1.3610     3.2810 ca         1 BC1      -0.169500
     17 C12         -0.4840     0.5980     2.3430 ca         1 BC1       0.320500
     18 N3           0.8150     0.9960     1.9440 nh         1 BC1      -0.821200
     19 C13          1.7220     0.0610     1.3870 ca         1 BC1       0.320500
     20 C14          1.2380    -1.1280     0.7960 ca         1 BC1      -0.119300
     21 C15          2.1540    -2.0140     0.1750 ca         1 BC1      -0.049500
     22 C16          3.5300    -1.7480     0.1910 ca         1 BC1      -0.144500
     23 C17          4.0120    -0.5910     0.8150 ca         1 BC1      -0.075500
     24 C18          3.1110     0.3080     1.4050 ca         1 BC1      -0.169500
     25 C19          1.1800     2.4370     1.9770 c3         1 BC1       0.211100
     26 H2           1.0960     1.1940    -2.8370 hc         1 BC1       0.022700
     27 H3           0.2950    -0.3530    -3.4270 hc         1 BC1       0.022700
     28 H4          -1.8620     0.4990    -2.6400 h1         1 BC1       0.061700
     29 H5          -1.0950     2.0050    -2.0950 h1         1 BC1       0.061700
     30 H6          -0.1580     0.8860    -0.2550 hn         1 BC1       0.313500
     31 H7          -2.8920    -1.7700     1.7060 ha         1 BC1       0.127500
     32 H8          -4.1300    -0.4060     3.3420 ha         1 BC1       0.115000
     33 H9          -3.0690     1.5970     4.3700 ha         1 BC1       0.106500
     34 H10         -0.7730     2.2400     3.7390 ha         1 BC1       0.111000
     35 H11          1.8070    -2.9140    -0.3300 ha         1 BC1       0.127500
     36 H12          4.2240    -2.4400    -0.2810 ha         1 BC1       0.115000
     37 H13          5.0810    -0.3860     0.8350 ha         1 BC1       0.106500
     38 H14          3.5070     1.1990     1.8820 ha         1 BC1       0.111000
     39 H15          1.8660     2.6860     1.1560 h1         1 BC1       0.042700
     40 H16          0.2930     3.0700     1.8400 h1         1 BC1       0.042700
     41 H17          1.6580     2.6960     2.9310 h1         1 BC1       0.042700
@<TRIPOS>BOND
     1     1     2 1   
     2     2     3 1   
     3     2     4 1   
     4     4     5 1   
     5     4    26 1   
     6     4    27 1   
     7     5     6 1   
     8     5    28 1   
     9     5    29 1   
    10     6     7 1   
    11     6    30 1   
    12     7     8 2   
    13     7     9 1   
    14     9    10 1   
    15     9    12 1   
    16     9    20 1   
    17    10    11 3   
    18    12    13 ar  
    19    12    17 ar  
    20    13    14 ar  
    21    13    31 1   
    22    14    15 ar  
    23    14    32 1   
    24    15    16 ar  
    25    15    33 1   
    26    16    17 ar  
    27    16    34 1   
    28    17    18 1   
    29    18    19 1   
    30    18    25 1   
    31    19    20 ar  
    32    19    24 ar  
    33    20    21 ar  
    34    21    22 ar  
    35    21    35 1   
    36    22    23 ar  
    37    22    36 1   
    38    23    24 ar  
    39    23    37 1   
    40    24    38 1   
    41    25    39 1   
    42    25    40 1   
    43    25    41 1   
@<TRIPOS>SUBSTRUCTURE
     1 BC1         1 TEMP              0 ****  ****    0 ROOT
