@<TRIPOS>MOLECULE
BC1
   41    43     1     0     0
SMALL
abcg2


@<TRIPOS>ATOM
      1 O1           0.9490     1.3730    -5.8340 o          1 BC1      -0.732500
      2 C1           0.0530     1.3600    -4.9680 c          1 BC1       0.723000
      3 O2          -1.0950     1.8350    -5.0740 o          1 BC1      -0.732500
      4 C2           0.4170     0.6790    -3.6350 c3         1 BC1      -0.232400
      5 C3          -0.6840     0.7280    -2.5920 c3         1 BC1       0.114000
      6 N1          -0.2500     0.0750    -1.3660 ns         1 BC1      -0.477900
      7 C4          -1.0640    -0.5770    -0.5470 c          1 BC1       0.609100
      8 O3          -2.2600    -0.7330    -0.7100 o          1 BC1      -0.603100
      9 C5          -0.4020    -1.2000     0.7320 c6         1 BC1       0.025700
     10 C6          -0.7040    -2.6290     0.6500 c1         1 BC1       0.338900
     11 N2          -0.9340    -3.7530     0.5750 n1         1 BC1      -0.476000
     12 C7          -1.0930    -0.5860     1.9360 ca         1 BC1      -0.119300
     13 C8          -2.2460    -1.1200     2.4900 ca         1 BC1      -0.049500
     14 C9          -2.9080    -0.4710     3.5200 ca         1 BC1      -0.144500
     15 C10         -2.4040     0.7320     3.9950 ca         1 BC1      -0.075500
     16 C11         -1.2460     1.2720     3.4610 ca         1 BC1      -0.169500
     17 C12         -0.5760     0.6210     2.4220 ca         1 BC1       0.320500
     18 N3           0.5970     1.1300     1.8770 nh         1 BC1      -0.821200
     19 C13          1.5280     0.2370     1.3700 ca         1 BC1       0.320500
     20 C14          1.0910    -0.9820     0.8330 ca         1 BC1      -0.119300
     21 C15          2.0170    -1.8890     0.3320 ca         1 BC1      -0.049500
     22 C16          3.3720    -1.6060     0.3430 ca         1 BC1      -0.144500
     23 C17          3.8040    -0.3940     0.8650 ca         1 BC1      -0.075500
     24 C18          2.8980     0.5180     1.3790 ca         1 BC1      -0.169500
     25 C19          0.9960     2.4880     2.1780 c3         1 BC1       0.211100
     26 H2           1.3270     1.1490    -3.2460 hc         1 BC1       0.022700
     27 H3           0.6850    -0.3630    -3.8370 hc         1 BC1       0.022700
     28 H4          -1.5770     0.2200    -2.9500 h1         1 BC1       0.061700
     29 H5          -0.9630     1.7610    -2.3760 h1         1 BC1       0.061700
     30 H6           0.7250     0.1510    -1.1200 hn         1 BC1       0.313500
     31 H7          -2.6460    -2.0530     2.1120 ha         1 BC1       0.127500
     32 H8          -3.8090    -0.8970     3.9400 ha         1 BC1       0.115000
     33 H9          -2.9060     1.2530     4.7990 ha         1 BC1       0.106500
     34 H10         -0.8610     2.1940     3.8750 ha         1 BC1       0.111000
     35 H11          1.6770    -2.8250    -0.0940 ha         1 BC1       0.127500
     36 H12          4.0800    -2.3200    -0.0560 ha         1 BC1       0.115000
     37 H13          4.8590    -0.1560     0.8870 ha         1 BC1       0.106500
     38 H14          3.2670     1.4400     1.8050 ha         1 BC1       0.111000
     39 H15          1.6510     2.8580     1.3930 h1         1 BC1       0.042700
     40 H16          0.1180     3.1280     2.1910 h1         1 BC1       0.042700
     41 H17          1.5120     2.5810     3.1370 h1         1 BC1       0.042700
@<TRIPOS>BOND
     1     1     2 1   
     2     2     3 1   
     3     2     4 1   
     4     4     5 1   
     5     4    26 1   
     6     4    27 1   
     7     5     6 1   
     8     5    28 1   
     9     5    29 1   
    10     6     7 1   
    11     6    30 1   
    12     7     8 2   
    13     7     9 1   
    14     9    10 1   
    15     9    12 1   
    16     9    20 1   
    17    10    11 3   
    18    12    13 ar  
    19    12    17 ar  
    20    13    14 ar  
    21    13    31 1   
    22    14    15 ar  
    23    14    32 1   
    24    15    16 ar  
    25    15    33 1   
    26    16    17 ar  
    27    16    34 1   
    28    17    18 1   
    29    18    19 1   
    30    18    25 1   
    31    19    20 ar  
    32    19    24 ar  
    33    20    21 ar  
    34    21    22 ar  
    35    21    35 1   
    36    22    23 ar  
    37    22    36 1   
    38    23    24 ar  
    39    23    37 1   
    40    24    38 1   
    41    25    39 1   
    42    25    40 1   
    43    25    41 1   
@<TRIPOS>SUBSTRUCTURE
     1 BC1         1 TEMP              0 ****  ****    0 ROOT
