@<TRIPOS>MOLECULE
BC2
   82    83     1     0     0
SMALL
abcg2


@<TRIPOS>ATOM
      1 O23          1.8230     0.5810     0.4900 o          1 BC2      -0.449100
      2 C2           3.0250     0.5880     0.5300 c          1 BC2       0.552500
      3 C3           3.7450     1.8630     0.8900 cc         1 BC2       0.026400
      4 C4           4.9640     1.8000     1.4400 cd         1 BC2      -0.318200
      5 C5           5.6780     0.5210     1.5240 c          1 BC2       0.566500
      6 O24          6.7650     0.4390     2.0650 o          1 BC2      -0.504100
      7 C6           5.0770    -0.6530     0.8570 cc         1 BC2      -0.247200
      8 N22          2.9740     3.0090     0.8250 ns         1 BC2      -0.433100
      9 C21          2.1190     3.1910    -0.2380 c          1 BC2       0.624300
     10 O37          2.3670     2.6850    -1.3150 o          1 BC2      -0.563100
     11 C20          0.8790     3.9540     0.0550 ce         1 BC2      -0.192400
     12 C36          0.9190     5.0560     1.0700 c3         1 BC2      -0.049900
     13 C19         -0.2290     3.4740    -0.5340 cf         1 BC2      -0.096000
     14 C18         -1.5870     3.9360    -0.3240 cf         1 BC2      -0.208000
     15 C17         -2.6880     3.2320    -0.6180 c2         1 BC2      -0.171200
     16 C16         -2.7670     1.8370    -1.1710 c3         1 BC2      -0.031500
     17 C35         -3.4550     1.8680    -2.5360 c3         1 BC2      -0.079100
     18 C1           3.8440    -0.6350     0.3460 cd         1 BC2      -0.155400
     19 C7           3.2570    -1.8000    -0.4230 c3         1 BC2       0.229500
     20 O38          2.6030    -1.3390    -1.5690 os         1 BC2      -0.427000
     21 C39          3.4510    -0.7250    -2.5020 c3         1 BC2       0.136900
     22 C8           2.3700    -2.7640     0.4220 c3         1 BC2      -0.020700
     23 C25          1.7710    -2.2000     1.7060 c3         1 BC2      -0.087100
     24 C9           1.3640    -3.5590    -0.4350 c3         1 BC2      -0.072400
     25 C10         -0.0630    -3.0090    -0.6460 c3         1 BC2       0.171300
     26 O26         -0.0770    -1.6200    -0.8170 os         1 BC2      -0.433000
     27 C27         -0.2910    -1.1740    -2.1230 c3         1 BC2       0.161900
     28 C11         -1.0670    -3.3640     0.4680 c3         1 BC2       0.162300
     29 O28         -1.1050    -4.7750     0.5690 os         1 BC2      -0.464000
     30 C40         -0.7850    -5.2980     1.8330 c3         1 BC2       0.150900
     31 C12         -2.4850    -2.8380     0.1600 c3         1 BC2      -0.039500
     32 C29         -3.5160    -3.4430     1.1220 c3         1 BC2      -0.084100
     33 C13         -2.5870    -1.3420     0.2700 c2         1 BC2      -0.150200
     34 C14         -3.4060    -0.5600    -0.4340 c2         1 BC2      -0.167400
     35 C30         -4.3240    -1.0970    -1.5030 c3         1 BC2      -0.045900
     36 C15         -3.4250     0.9170    -0.1230 c3         1 BC2       0.245500
     37 O31         -4.7730     1.3790     0.0320 os         1 BC2      -0.471100
     38 C32         -5.3830     1.2040     1.2100 c          1 BC2       0.641100
     39 O33         -4.8430     0.7770     2.2080 o          1 BC2      -0.540000
     40 N34         -6.6800     1.5570     1.1280 nt         1 BC2      -0.596000
     41 H4C1         5.4620     2.6840     1.8190 ha         1 BC2       0.209000
     42 H22          2.8950     3.5780     1.6550 hn         1 BC2       0.334500
     43 H6C1         5.7030    -1.5360     0.7790 ha         1 BC2       0.204000
     44 H361         1.7950     5.6920     0.9400 hc         1 BC2       0.044033
     45 H362         0.0410     5.6930     1.0040 hc         1 BC2       0.044033
     46 H363         0.9470     4.6640     2.0910 hc         1 BC2       0.044033
     47 H17         -3.6450     3.7090    -0.4280 ha         1 BC2       0.177000
     48 H16         -1.7630     1.4280    -1.3050 hc         1 BC2       0.072700
     49 H351        -2.9070     2.5260    -3.2100 hc         1 BC2       0.039700
     50 H352        -3.4870     0.8830    -2.9980 hc         1 BC2       0.039700
     51 H353        -4.4770     2.2430    -2.4670 hc         1 BC2       0.039700
     52 H15         -2.8810     1.0690     0.8130 h1         1 BC2       0.071700
     53 H7           4.1250    -2.4000    -0.7430 h1         1 BC2       0.025700
     54 H8           3.0950    -3.5100     0.7620 hc         1 BC2       0.030700
     55 H391         2.8760    -0.5720    -3.4150 h1         1 BC2       0.034033
     56 H392         3.8160     0.2540    -2.1680 h1         1 BC2       0.034033
     57 H393         4.3240    -1.3470    -2.7400 h1         1 BC2       0.034033
     58 H251         0.9840    -1.4740     1.5280 hc         1 BC2       0.040367
     59 H252         1.3560    -3.0180     2.2970 hc         1 BC2       0.040367
     60 H253         2.5360    -1.7330     2.3280 hc         1 BC2       0.040367
     61 H9C1         1.8060    -3.7370    -1.4180 hc         1 BC2       0.046700
     62 H9C2         1.2670    -4.5530     0.0050 hc         1 BC2       0.046700
     63 H10         -0.4510    -3.5100    -1.5480 h1         1 BC2       0.039700
     64 H11         -0.7440    -2.9250     1.4210 h1         1 BC2       0.052700
     65 H271        -1.3290    -1.3270    -2.4450 h1         1 BC2       0.024700
     66 H272        -0.0780    -0.1050    -2.1480 h1         1 BC2       0.024700
     67 H273         0.3650    -1.6630    -2.8490 h1         1 BC2       0.024700
     68 H12         -2.7460    -3.1540    -0.8580 hc         1 BC2       0.058700
     69 H401         0.2510    -5.0850     2.1240 h1         1 BC2       0.027700
     70 H402        -1.4400    -4.9190     2.6250 h1         1 BC2       0.027700
     71 H403        -0.9040    -6.3810     1.7840 h1         1 BC2       0.027700
     72 H291        -3.2990    -3.1660     2.1560 hc         1 BC2       0.038367
     73 H292        -4.5130    -3.0670     0.8880 hc         1 BC2       0.038367
     74 H293        -3.5490    -4.5300     1.0590 hc         1 BC2       0.038367
     75 H13         -1.9950    -0.8840     1.0580 ha         1 BC2       0.182000
     76 H301        -4.7820    -2.0400    -1.2000 hc         1 BC2       0.039033
     77 H302        -5.1370    -0.4090    -1.7290 hc         1 BC2       0.039033
     78 H303        -3.7970    -1.2910    -2.4400 hc         1 BC2       0.039033
     79 H341        -7.0410     2.0210     0.3120 hn         1 BC2       0.321500
     80 H342        -7.2150     1.6340     1.9750 hn         1 BC2       0.321500
     81 H18         -1.7260     4.9200     0.1110 ha         1 BC2       0.176000
     82 H19         -0.1020     2.6310    -1.2030 ha         1 BC2       0.197000
@<TRIPOS>BOND
     1     1     2 2   
     2     2     3 1   
     3     2    18 1   
     4     3     4 2   
     5     3     8 1   
     6     4     5 1   
     7     4    41 1   
     8     5     6 2   
     9     5     7 1   
    10     7    18 2   
    11     7    43 1   
    12     8     9 1   
    13     8    42 1   
    14     9    10 2   
    15     9    11 1   
    16    11    12 1   
    17    11    13 2   
    18    12    44 1   
    19    12    45 1   
    20    12    46 1   
    21    13    14 1   
    22    13    82 1   
    23    14    15 2   
    24    14    81 1   
    25    15    16 1   
    26    15    47 1   
    27    16    17 1   
    28    16    36 1   
    29    16    48 1   
    30    17    49 1   
    31    17    50 1   
    32    17    51 1   
    33    18    19 1   
    34    19    20 1   
    35    19    22 1   
    36    19    53 1   
    37    20    21 1   
    38    21    55 1   
    39    21    56 1   
    40    21    57 1   
    41    22    23 1   
    42    22    24 1   
    43    22    54 1   
    44    23    58 1   
    45    23    59 1   
    46    23    60 1   
    47    24    25 1   
    48    24    61 1   
    49    24    62 1   
    50    25    26 1   
    51    25    28 1   
    52    25    63 1   
    53    26    27 1   
    54    27    65 1   
    55    27    66 1   
    56    27    67 1   
    57    28    29 1   
    58    28    31 1   
    59    28    64 1   
    60    29    30 1   
    61    30    69 1   
    62    30    70 1   
    63    30    71 1   
    64    31    32 1   
    65    31    33 1   
    66    31    68 1   
    67    32    72 1   
    68    32    73 1   
    69    32    74 1   
    70    33    34 2   
    71    33    75 1   
    72    34    35 1   
    73    34    36 1   
    74    35    76 1   
    75    35    77 1   
    76    35    78 1   
    77    36    37 1   
    78    36    52 1   
    79    37    38 1   
    80    38    39 2   
    81    38    40 1   
    82    40    79 1   
    83    40    80 1   
@<TRIPOS>SUBSTRUCTURE
     1 BC2         1 TEMP              0 ****  ****    0 ROOT
