@<TRIPOS>MOLECULE
BC2
   82    83     1     0     0
SMALL
No Charge or Current Charge


@<TRIPOS>ATOM
      1 O23          2.0360     0.4530    -0.4190 o          1 BC2      -0.449100
      2 C2           3.1620     0.5240     0.0520 c          1 BC2       0.552500
      3 C3           3.7090     1.8040     0.6410 cc         1 BC2       0.026400
      4 C4           4.9230     1.8380     1.2940 cd         1 BC2      -0.318200
      5 C5           5.7970     0.6600     1.3840 c          1 BC2       0.566500
      6 O24          6.8800     0.7090     1.9460 o          1 BC2      -0.504100
      7 C6           5.2950    -0.5740     0.7590 cc         1 BC2      -0.247200
      8 N22          2.9180     2.9580     0.6200 ns         1 BC2      -0.433100
      9 C21          1.9930     3.2970    -0.3490 c          1 BC2       0.624300
     10 O37          2.1800     3.0300    -1.5290 o          1 BC2      -0.563100
     11 C20          0.7080     3.9010     0.1520 ce         1 BC2      -0.192400
     12 C36          0.6820     4.4650     1.5740 c3         1 BC2      -0.049900
     13 C19         -0.4070     3.8230    -0.6350 cf         1 BC2      -0.096000
     14 C18         -1.7590     4.2160    -0.2690 cf         1 BC2      -0.208000
     15 C17         -2.8380     3.4090    -0.4140 c2         1 BC2      -0.171200
     16 C16         -2.8370     1.9600    -0.9040 c3         1 BC2      -0.031500
     17 C35         -3.2220     1.8900    -2.4000 c3         1 BC2      -0.079100
     18 C1           4.0580    -0.6740     0.1320 cd         1 BC2      -0.155400
     19 C7           3.5600    -1.9720    -0.5000 c3         1 BC2       0.229500
     20 O38          3.1320    -1.7350    -1.8550 os         1 BC2      -0.427000
     21 C39          4.1550    -1.2960    -2.7680 c3         1 BC2       0.136900
     22 C8           2.4730    -2.7870     0.3140 c3         1 BC2      -0.020700
     23 C25          1.9340    -2.1020     1.5990 c3         1 BC2      -0.087100
     24 C9           1.3860    -3.5680    -0.5250 c3         1 BC2      -0.072400
     25 C10         -0.0770    -3.0080    -0.6910 c3         1 BC2       0.171300
     26 O26         -0.0420    -1.6050    -1.0080 os         1 BC2      -0.433000
     27 C27          0.0320    -1.2910    -2.4090 c3         1 BC2       0.161900
     28 C11         -1.0440    -3.2340     0.5250 c3         1 BC2       0.162300
     29 O28         -1.0800    -4.6630     0.7680 os         1 BC2      -0.464000
     30 C40         -0.8370    -5.0730     2.1270 c3         1 BC2       0.150900
     31 C12         -2.5170    -2.7400     0.2770 c3         1 BC2      -0.039500
     32 C29         -3.5450    -3.3250     1.2810 c3         1 BC2      -0.084100
     33 C13         -2.6510    -1.2160     0.3100 c2         1 BC2      -0.150200
     34 C14         -3.6120    -0.4550    -0.2590 c2         1 BC2      -0.167400
     35 C30         -4.7380    -1.0110    -1.1370 c3         1 BC2      -0.045900
     36 C15         -3.6980     1.0570     0.0310 c3         1 BC2       0.245500
     37 O31         -5.0670     1.5130    -0.0330 os         1 BC2      -0.471100
     38 C32         -5.8850     1.2490     1.0200 c          1 BC2       0.641100
     39 O33         -5.5790     0.6970     2.0610 o          1 BC2      -0.540000
     40 N34         -7.1110     1.7280     0.7690 nt         1 BC2      -0.596000
     41 H4C1         5.3140     2.7360     1.7560 ha         1 BC2       0.209000
     42 H22          2.8560     3.4990     1.4730 hn         1 BC2       0.334500
     43 H6C1         5.9660    -1.4230     0.8350 ha         1 BC2       0.204000
     44 H361         1.4610     5.2240     1.7140 hc         1 BC2       0.044033
     45 H362        -0.2720     4.9440     1.8210 hc         1 BC2       0.044033
     46 H363         0.8410     3.6760     2.3200 hc         1 BC2       0.044033
     47 H17         -3.8190     3.7890    -0.1190 ha         1 BC2       0.177000
     48 H16         -1.8170     1.5650    -0.8280 hc         1 BC2       0.072700
     49 H351        -2.5940     2.5710    -2.9870 hc         1 BC2       0.039700
     50 H352        -3.0710     0.8790    -2.7950 hc         1 BC2       0.039700
     51 H353        -4.2690     2.1760    -2.5520 hc         1 BC2       0.039700
     52 H15         -3.3070     1.2250     1.0450 h1         1 BC2       0.071700
     53 H7           4.4330    -2.6370    -0.5520 h1         1 BC2       0.025700
     54 H8           3.0800    -3.6000     0.7330 hc         1 BC2       0.030700
     55 H391         3.7390    -1.1900    -3.7780 h1         1 BC2       0.034033
     56 H392         4.5650    -0.3240    -2.4680 h1         1 BC2       0.034033
     57 H393         4.9760    -2.0230    -2.8130 h1         1 BC2       0.034033
     58 H251         1.2420    -1.2870     1.3680 hc         1 BC2       0.040367
     59 H252         1.4110    -2.8300     2.2290 hc         1 BC2       0.040367
     60 H253         2.7540    -1.6980     2.2050 hc         1 BC2       0.040367
     61 H9C1         1.7820    -3.7750    -1.5260 hc         1 BC2       0.046700
     62 H9C2         1.3000    -4.5670    -0.0830 hc         1 BC2       0.046700
     63 H10         -0.5310    -3.5600    -1.5250 h1         1 BC2       0.039700
     64 H11         -0.6540    -2.7050     1.4010 h1         1 BC2       0.052700
     65 H271        -0.9010    -1.5730    -2.9140 h1         1 BC2       0.024700
     66 H272         0.1820    -0.2130    -2.5500 h1         1 BC2       0.024700
     67 H273         0.8570    -1.8230    -2.8970 h1         1 BC2       0.024700
     68 H12         -2.7970    -3.1080    -0.7170 hc         1 BC2       0.058700
     69 H401         0.1800    -4.8040     2.4390 h1         1 BC2       0.027700
     70 H402        -1.5460    -4.6030     2.8190 h1         1 BC2       0.027700
     71 H403        -0.9420    -6.1620     2.2190 h1         1 BC2       0.027700
     72 H291        -3.2840    -3.0500     2.3090 hc         1 BC2       0.038367
     73 H292        -4.5500    -2.9400     1.0750 hc         1 BC2       0.038367
     74 H293        -3.5970    -4.4180     1.2120 hc         1 BC2       0.038367
     75 H13         -1.9000    -0.7330     0.9390 ha         1 BC2       0.182000
     76 H301        -4.5630    -2.0440    -1.4530 hc         1 BC2       0.039033
     77 H302        -5.6970    -1.0060    -0.6070 hc         1 BC2       0.039033
     78 H303        -4.8660    -0.4250    -2.0530 hc         1 BC2       0.039033
     79 H341        -7.2890     2.1830    -0.1120 hn         1 BC2       0.321500
     80 H342        -7.8380     1.6240     1.4590 hn         1 BC2       0.321500
     81 H18         -1.8930     5.2120     0.1590 ha         1 BC2       0.176000
     82 H19         -0.3150     3.3250    -1.6040 ha         1 BC2       0.197000
@<TRIPOS>BOND
     1     1     2 2   
     2     2     3 1   
     3     2    18 1   
     4     3     4 2   
     5     3     8 1   
     6     4     5 1   
     7     4    41 1   
     8     5     6 2   
     9     5     7 1   
    10     7    18 2   
    11     7    43 1   
    12     8     9 1   
    13     8    42 1   
    14     9    10 2   
    15     9    11 1   
    16    11    12 1   
    17    11    13 2   
    18    12    44 1   
    19    12    45 1   
    20    12    46 1   
    21    13    14 1   
    22    13    82 1   
    23    14    15 2   
    24    14    81 1   
    25    15    16 1   
    26    15    47 1   
    27    16    17 1   
    28    16    36 1   
    29    16    48 1   
    30    17    49 1   
    31    17    50 1   
    32    17    51 1   
    33    18    19 1   
    34    19    20 1   
    35    19    22 1   
    36    19    53 1   
    37    20    21 1   
    38    21    55 1   
    39    21    56 1   
    40    21    57 1   
    41    22    23 1   
    42    22    24 1   
    43    22    54 1   
    44    23    58 1   
    45    23    59 1   
    46    23    60 1   
    47    24    25 1   
    48    24    61 1   
    49    24    62 1   
    50    25    26 1   
    51    25    28 1   
    52    25    63 1   
    53    26    27 1   
    54    27    65 1   
    55    27    66 1   
    56    27    67 1   
    57    28    29 1   
    58    28    31 1   
    59    28    64 1   
    60    29    30 1   
    61    30    69 1   
    62    30    70 1   
    63    30    71 1   
    64    31    32 1   
    65    31    33 1   
    66    31    68 1   
    67    32    72 1   
    68    32    73 1   
    69    32    74 1   
    70    33    34 2   
    71    33    75 1   
    72    34    35 1   
    73    34    36 1   
    74    35    76 1   
    75    35    77 1   
    76    35    78 1   
    77    36    37 1   
    78    36    52 1   
    79    37    38 1   
    80    38    39 2   
    81    38    40 1   
    82    40    79 1   
    83    40    80 1   
@<TRIPOS>SUBSTRUCTURE
     1 BC2         1 TEMP              0 ****  ****    0 ROOT
