@<TRIPOS>MOLECULE
BC3
   29    31     1     0     0
SMALL
No Charge or Current Charge


@<TRIPOS>ATOM
      1 N01         -2.5360     2.8580    -0.5320 nv         1 BC3      -1.031200
      2 C02         -2.2980     1.5700    -0.3310 cc         1 BC3       0.691800
      3 N03         -1.1470     1.1070    -0.7620 nd         1 BC3      -0.666100
      4 C04         -0.9680    -0.2500    -0.5110 cd         1 BC3       0.183400
      5 C05          0.1430    -1.0550    -0.8350 cd         1 BC3      -0.161300
      6 C06          1.3990    -0.5980    -1.5310 c3         1 BC3       0.060200
      7 C07          2.4650    -0.1140    -0.5590 ca         1 BC3      -0.122300
      8 C08          3.4550    -0.9890    -0.0770 ca         1 BC3      -0.075000
      9 C09          4.4070    -0.4830     0.8230 ca         1 BC3      -0.167000
     10 C10          4.3390     0.8660     1.2100 ca         1 BC3       0.329900
     11 N11          3.3880     1.7140     0.7550 nb         1 BC3      -0.672000
     12 C12          2.4690     1.2230    -0.1120 ca         1 BC3       0.348900
     13 C13         -0.1280    -2.3270    -0.3890 cc         1 BC3      -0.133000
     14 N14         -1.3990    -2.2850     0.1980 na         1 BC3      -0.074000
     15 C15         -1.9200    -0.9900     0.1220 cc         1 BC3      -0.320600
     16 C16         -3.1860    -0.4310     0.5780 c          1 BC3       0.615600
     17 O17         -4.0700    -1.0540     1.1440 o          1 BC3      -0.559000
     18 N18         -3.2740     0.8850     0.2970 ns         1 BC3      -0.445400
     19 HN01        -1.7220     3.3790    -0.8330 hn         1 BC3       0.486500
     20 HN0A        -3.1300     3.3310     0.1370 hn         1 BC3       0.486500
     21 H06          1.7980    -1.4180    -2.1410 hc         1 BC3       0.055200
     22 H06A         1.1580     0.2000    -2.2440 hc         1 BC3       0.055200
     23 H08          3.4850    -2.0310    -0.3900 ha         1 BC3       0.112000
     24 H09          5.1900    -1.1230     1.2200 ha         1 BC3       0.119000
     25 H10          5.0670     1.2810     1.9070 h4         1 BC3       0.014100
     26 H12          1.7140     1.9280    -0.4610 h4         1 BC3       0.030100
     27 H13          0.4630    -3.2350    -0.4360 h4         1 BC3       0.148000
     28 HN14        -1.8720    -3.0830     0.6190 hn         1 BC3       0.366000
     29 HN18        -4.1260     1.3510     0.5570 hn         1 BC3       0.323500
@<TRIPOS>BOND
     1     1     2 1   
     2     1    19 1   
     3     1    20 1   
     4     2     3 2   
     5     2    18 1   
     6     3     4 1   
     7     4     5 1   
     8     4    15 2   
     9     5     6 1   
    10     5    13 2   
    11     6     7 1   
    12     6    21 1   
    13     6    22 1   
    14     7     8 ar  
    15     7    12 ar  
    16     8     9 ar  
    17     8    23 1   
    18     9    10 ar  
    19     9    24 1   
    20    10    11 ar  
    21    10    25 1   
    22    11    12 ar  
    23    12    26 1   
    24    13    14 1   
    25    13    27 1   
    26    14    15 1   
    27    14    28 1   
    28    15    16 1   
    29    16    17 2   
    30    16    18 1   
    31    18    29 1   
@<TRIPOS>SUBSTRUCTURE
     1 BC3         1 TEMP              0 ****  ****    0 ROOT
