@<TRIPOS>MOLECULE
BC3
   29    31     1     0     0
SMALL
abcg2


@<TRIPOS>ATOM
      1 N01         -2.3290     2.9320    -0.3440 nv         1 BC3      -1.031200
      2 C02         -2.0900     1.6070    -0.2000 cc         1 BC3       0.691800
      3 N03         -0.9970     1.0800    -0.6620 nd         1 BC3      -0.666100
      4 C04         -0.8970    -0.2690    -0.5130 cd         1 BC3       0.183400
      5 C05          0.1530    -1.1310    -0.9200 cd         1 BC3      -0.161300
      6 C06          1.4290    -0.7290    -1.5880 c3         1 BC3       0.060200
      7 C07          2.4180    -0.1400    -0.6160 ca         1 BC3      -0.122300
      8 C08          3.3470    -0.9300     0.0520 ca         1 BC3      -0.075000
      9 C09          4.2160    -0.3410     0.9580 ca         1 BC3      -0.167000
     10 C10          4.1240     1.0260     1.1690 ca         1 BC3       0.329900
     11 N11          3.2440     1.7970     0.5410 nb         1 BC3      -0.672000
     12 C12          2.4190     1.2210    -0.3250 ca         1 BC3       0.348900
     13 C13         -0.2350    -2.4010    -0.5430 cc         1 BC3      -0.133000
     14 N14         -1.4440    -2.3560     0.0620 na         1 BC3      -0.074000
     15 C15         -1.8700    -1.0590     0.0890 cc         1 BC3      -0.320600
     16 C16         -3.0680    -0.4990     0.6040 c          1 BC3       0.615600
     17 O17         -3.9980    -1.0730     1.1550 o          1 BC3      -0.559000
     18 N18         -3.0820     0.8780     0.4060 ns         1 BC3      -0.445400
     19 HN01        -1.5300     3.4960    -0.5790 hn         1 BC3       0.486500
     20 HN0A        -2.9950     3.3810     0.2640 hn         1 BC3       0.486500
     21 H06          1.8750    -1.5970    -2.0790 hc         1 BC3       0.055200
     22 H06A         1.2190    -0.0020    -2.3760 hc         1 BC3       0.055200
     23 H08          3.3940    -1.9960    -0.1380 ha         1 BC3       0.112000
     24 H09          4.9530    -0.9280     1.4890 ha         1 BC3       0.119000
     25 H10          4.7890     1.5180     1.8700 h4         1 BC3       0.014100
     26 H12          1.7020     1.8710    -0.8160 h4         1 BC3       0.030100
     27 H13          0.2800    -3.3390    -0.6780 h4         1 BC3       0.148000
     28 HN14        -1.9530    -3.1530     0.4060 hn         1 BC3       0.366000
     29 HN18        -3.9070     1.3630     0.7360 hn         1 BC3       0.323500
@<TRIPOS>BOND
     1     1     2 1   
     2     1    19 1   
     3     1    20 1   
     4     2     3 2   
     5     2    18 1   
     6     3     4 1   
     7     4     5 1   
     8     4    15 2   
     9     5     6 1   
    10     5    13 2   
    11     6     7 1   
    12     6    21 1   
    13     6    22 1   
    14     7     8 ar  
    15     7    12 ar  
    16     8     9 ar  
    17     8    23 1   
    18     9    10 ar  
    19     9    24 1   
    20    10    11 ar  
    21    10    25 1   
    22    11    12 ar  
    23    12    26 1   
    24    13    14 1   
    25    13    27 1   
    26    14    15 1   
    27    14    28 1   
    28    15    16 1   
    29    16    17 2   
    30    16    18 1   
    31    18    29 1   
@<TRIPOS>SUBSTRUCTURE
     1 BC3         1 TEMP              0 ****  ****    0 ROOT
