@<TRIPOS>MOLECULE
BC4
   31    32     1     0     0
SMALL
No Charge or Current Charge


@<TRIPOS>ATOM
      1 CAA         -6.7700     0.8820     0.1870 c1         1 BC4      -0.246000
      2 CAC         -5.7740     0.1950     0.1680 c1         1 BC4      -0.145100
      3 CAD         -4.5450    -0.6100     0.1390 c3         1 BC4       0.006700
      4 CAE         -3.2940     0.2290    -0.2050 c3         1 BC4      -0.073400
      5 CAF         -1.9950    -0.6080    -0.2380 c3         1 BC4      -0.078400
      6 CAG         -0.7420     0.2320    -0.5820 c3         1 BC4      -0.059400
      7 CAM          0.5730    -0.5880    -0.6620 c5         1 BC4       0.072300
      8 SAK          1.0710    -1.2460     0.9940 ss         1 BC4      -0.404000
      9 CAH          2.6740    -1.7710     0.2320 c5         1 BC4       0.028600
     10 CAN          3.1260    -0.6080    -0.7150 c5         1 BC4       0.103700
     11 CAO          1.8380     0.1760    -1.2020 c5         1 BC4       0.094700
     12 NAJ          1.9420     1.4370    -0.4570 ns         1 BC4      -0.507900
     13 CAL          3.0470     1.5020     0.3200 c          1 BC4       0.611000
     14 OAB          3.3540     2.4400     1.0290 o          1 BC4      -0.575000
     15 NAI          3.7680     0.3680     0.1690 ns         1 BC4      -0.522900
     16 H1          -7.6450     1.5010     0.2040 ha         1 BC4       0.254000
     17 H2          -4.4100    -1.0880     1.1180 hc         1 BC4       0.056700
     18 H3          -4.6640    -1.4140    -0.5980 hc         1 BC4       0.056700
     19 H4          -3.4380     0.7090    -1.1820 hc         1 BC4       0.046700
     20 H5          -3.1840     1.0330     0.5340 hc         1 BC4       0.046700
     21 H6          -1.8570    -1.0890     0.7380 hc         1 BC4       0.046700
     22 H7          -2.1040    -1.4110    -0.9780 hc         1 BC4       0.046700
     23 H8          -0.9120     0.7270    -1.5460 hc         1 BC4       0.053700
     24 H9          -0.6440     1.0300     0.1640 hc         1 BC4       0.053700
     25 H10          0.3840    -1.4500    -1.3170 h1         1 BC4       0.068700
     26 H11          3.4200    -2.0040     1.0040 h1         1 BC4       0.077700
     27 H12          2.5000    -2.6860    -0.3480 h1         1 BC4       0.077700
     28 H13          3.7770    -0.9420    -1.5350 h1         1 BC4       0.070700
     29 H14          1.8130     0.3300    -2.2890 h1         1 BC4       0.061700
     30 H15          1.2930     2.2130    -0.4690 hn         1 BC4       0.335500
     31 H16          4.6310     0.2520     0.6860 hn         1 BC4       0.341500
@<TRIPOS>BOND
     1     1     2 3   
     2     1    16 1   
     3     2     3 1   
     4     3     4 1   
     5     3    17 1   
     6     3    18 1   
     7     4     5 1   
     8     4    19 1   
     9     4    20 1   
    10     5     6 1   
    11     5    21 1   
    12     5    22 1   
    13     6     7 1   
    14     6    23 1   
    15     6    24 1   
    16     7     8 1   
    17     7    11 1   
    18     7    25 1   
    19     8     9 1   
    20     9    10 1   
    21     9    26 1   
    22     9    27 1   
    23    10    11 1   
    24    10    15 1   
    25    10    28 1   
    26    11    12 1   
    27    11    29 1   
    28    12    13 1   
    29    12    30 1   
    30    13    14 2   
    31    13    15 1   
    32    15    31 1   
@<TRIPOS>SUBSTRUCTURE
     1 BC4         1 TEMP              0 ****  ****    0 ROOT
