@<TRIPOS>MOLECULE
BC4
   31    32     1     0     0
SMALL
abcg2


@<TRIPOS>ATOM
      1 CAA         -6.7270     0.8480     0.1230 c1         1 BC4      -0.246000
      2 CAC         -5.7240     0.1830     0.1150 c1         1 BC4      -0.145100
      3 CAD         -4.5000    -0.6070     0.1010 c3         1 BC4       0.006700
      4 CAE         -3.2540     0.2350    -0.1880 c3         1 BC4      -0.073400
      5 CAF         -1.9880    -0.6110    -0.2040 c3         1 BC4      -0.078400
      6 CAG         -0.7480     0.2200    -0.5080 c3         1 BC4      -0.059400
      7 CAM          0.5220    -0.6030    -0.6210 c5         1 BC4       0.072300
      8 SAK          1.0120    -1.3710     0.9570 ss         1 BC4      -0.404000
      9 CAH          2.6170    -1.7900     0.2280 c5         1 BC4       0.028600
     10 CAN          3.0320    -0.5920    -0.6360 c5         1 BC4       0.103700
     11 CAO          1.7560     0.1950    -1.0580 c5         1 BC4       0.094700
     12 NAJ          1.9030     1.4400    -0.3470 ns         1 BC4      -0.507900
     13 CAL          3.1110     1.5670     0.2710 c          1 BC4       0.611000
     14 OAB          3.5140     2.5480     0.8760 o          1 BC4      -0.575000
     15 NAI          3.7840     0.4050     0.0770 ns         1 BC4      -0.522900
     16 H1          -7.6170     1.4330     0.1360 ha         1 BC4       0.254000
     17 H2          -4.3910    -1.1110     1.0650 hc         1 BC4       0.056700
     18 H3          -4.5940    -1.3970    -0.6490 hc         1 BC4       0.056700
     19 H4          -3.3740     0.7390    -1.1500 hc         1 BC4       0.046700
     20 H5          -3.1650     1.0200     0.5680 hc         1 BC4       0.046700
     21 H6          -1.8770    -1.1140     0.7620 hc         1 BC4       0.046700
     22 H7          -2.0870    -1.4030    -0.9530 hc         1 BC4       0.046700
     23 H8          -0.8940     0.7430    -1.4590 hc         1 BC4       0.053700
     24 H9          -0.6200     0.9920     0.2570 hc         1 BC4       0.053700
     25 H10          0.3680    -1.4030    -1.3530 h1         1 BC4       0.068700
     26 H11          3.3440    -2.0020     1.0120 h1         1 BC4       0.077700
     27 H12          2.5160    -2.6820    -0.3920 h1         1 BC4       0.077700
     28 H13          3.5880    -0.9530    -1.5040 h1         1 BC4       0.070700
     29 H14          1.7170     0.3570    -2.1390 h1         1 BC4       0.061700
     30 H15          1.3850     2.2620    -0.6110 hn         1 BC4       0.335500
     31 H16          4.6250     0.1920     0.5860 hn         1 BC4       0.341500
@<TRIPOS>BOND
     1     1     2 3   
     2     1    16 1   
     3     2     3 1   
     4     3     4 1   
     5     3    17 1   
     6     3    18 1   
     7     4     5 1   
     8     4    19 1   
     9     4    20 1   
    10     5     6 1   
    11     5    21 1   
    12     5    22 1   
    13     6     7 1   
    14     6    23 1   
    15     6    24 1   
    16     7     8 1   
    17     7    11 1   
    18     7    25 1   
    19     8     9 1   
    20     9    10 1   
    21     9    26 1   
    22     9    27 1   
    23    10    11 1   
    24    10    15 1   
    25    10    28 1   
    26    11    12 1   
    27    11    29 1   
    28    12    13 1   
    29    12    30 1   
    30    13    14 2   
    31    13    15 1   
    32    15    31 1   
@<TRIPOS>SUBSTRUCTURE
     1 BC4         1 TEMP              0 ****  ****    0 ROOT
