@<TRIPOS>MOLECULE
BC5
   29    30     1     0     0
SMALL
bcc


@<TRIPOS>ATOM
      1 S1          -3.8200    -0.1210     0.0380 sy         1 BC5       1.268200
      2 N1          -4.1600     0.5930    -1.4140 n8         1 BC5      -0.891700
      3 O2          -4.3040     0.8050     1.0530 o          1 BC5      -0.617300
      4 O3          -4.2620    -1.5080     0.1010 o          1 BC5      -0.617300
      5 C4          -2.0550    -0.1080     0.0230 ca         1 BC5      -0.279500
      6 C5          -1.3890     1.0880     0.2610 ca         1 BC5      -0.024000
      7 C6          -0.0080     1.1050     0.2540 ca         1 BC5      -0.151000
      8 C7           0.7330    -0.0570     0.0050 cp         1 BC5       0.047000
      9 C8           0.0340    -1.2440    -0.2300 ca         1 BC5      -0.151000
     10 C9          -1.3510    -1.2780    -0.2190 ca         1 BC5      -0.024000
     11 C10          2.2030    -0.0260    -0.0080 cp         1 BC5      -0.109000
     12 C11          2.9020     1.1030    -0.4430 ca         1 BC5      -0.063000
     13 C12          4.2830     1.1390    -0.4610 ca         1 BC5      -0.206000
     14 C13          5.0360     0.0360    -0.0330 ca         1 BC5       0.175600
     15 C14          4.3400    -1.0970     0.4100 ca         1 BC5      -0.206000
     16 C15          2.9590    -1.1220     0.4160 ca         1 BC5      -0.063000
     17 N2           6.4050     0.0480    -0.0960 nv         1 BC5      -0.831200
     18 H1          -5.1100     0.9540    -1.4360 hn         1 BC5       0.416800
     19 H2          -4.0020    -0.0280    -2.2010 hn         1 BC5       0.416800
     20 H3          -1.9340     2.0000     0.4640 ha         1 BC5       0.153000
     21 H4           0.5010     2.0350     0.4710 ha         1 BC5       0.137000
     22 H5           0.5730    -2.1560    -0.4480 ha         1 BC5       0.137000
     23 H6          -1.8650    -2.2090    -0.4110 ha         1 BC5       0.153000
     24 H7           2.3610     1.9710    -0.8010 ha         1 BC5       0.131500
     25 H8           4.7890     2.0270    -0.8200 ha         1 BC5       0.132000
     26 H9           4.8910    -1.9610     0.7620 ha         1 BC5       0.132000
     27 H10          2.4630    -2.0100     0.7870 ha         1 BC5       0.131500
     28 H11          6.8490     0.9520    -0.1020 hn         1 BC5       0.401800
     29 H12          6.8900    -0.6190     0.4820 hn         1 BC5       0.401800
@<TRIPOS>BOND
     1     1     2 1   
     2     1     3 2   
     3     1     4 2   
     4     1     5 1   
     5     2    18 1   
     6     2    19 1   
     7     5     6 ar  
     8     5    10 ar  
     9     6     7 ar  
    10     6    20 1   
    11     7     8 ar  
    12     7    21 1   
    13     8     9 ar  
    14     8    11 1   
    15     9    10 ar  
    16     9    22 1   
    17    10    23 1   
    18    11    12 ar  
    19    11    16 ar  
    20    12    13 ar  
    21    12    24 1   
    22    13    14 ar  
    23    13    25 1   
    24    14    15 ar  
    25    14    17 1   
    26    15    16 ar  
    27    15    26 1   
    28    16    27 1   
    29    17    28 1   
    30    17    29 1   
@<TRIPOS>SUBSTRUCTURE
     1 BC5         1 TEMP              0 ****  ****    0 ROOT
