@<TRIPOS>MOLECULE
BC5
   29    30     1     0     0
SMALL
No Charge or Current Charge


@<TRIPOS>ATOM
      1 S1          -3.8790    -0.1040    -0.0140 sy         1 BC5       1.126600
      2 N1          -4.2510     0.3020    -1.5490 n8         1 BC5      -1.002100
      3 O2          -4.4230     1.0010     0.7730 o          1 BC5      -0.546500
      4 O3          -4.3810    -1.4700     0.1100 o          1 BC5      -0.546500
      5 C4          -2.0830    -0.0750    -0.0100 ca         1 BC5      -0.279500
      6 C5          -1.3950     1.1130     0.3050 ca         1 BC5      -0.006000
      7 C6           0.0110     1.1310     0.3060 ca         1 BC5      -0.133000
      8 C7           0.7630    -0.0290    -0.0050 cp         1 BC5       0.047000
      9 C8           0.0500    -1.2120    -0.3200 ca         1 BC5      -0.133000
     10 C9          -1.3560    -1.2390    -0.3260 ca         1 BC5      -0.006000
     11 C10          2.2610    -0.0050    -0.0010 cp         1 BC5      -0.109000
     12 C11          2.9770     1.1470    -0.4160 ca         1 BC5      -0.045000
     13 C12          4.3830     1.1670    -0.4120 ca         1 BC5      -0.188000
     14 C13          5.1020     0.0410     0.0060 ca         1 BC5       0.314000
     15 C14          4.4170    -1.1080     0.4190 ca         1 BC5      -0.188000
     16 C15          3.0110    -1.1340     0.4160 ca         1 BC5      -0.045000
     17 N2           6.4680     0.0630     0.0100 nv         1 BC5      -1.080000
     18 H1          -4.9020     1.0660    -1.3830 hn         1 BC5       0.472000
     19 H2          -4.8760    -0.4630    -1.7930 hn         1 BC5       0.472000
     20 H3          -1.9420     2.0220     0.5500 ha         1 BC5       0.135000
     21 H4           0.5210     2.0550     0.5660 ha         1 BC5       0.119000
     22 H5           0.5900    -2.1180    -0.5800 ha         1 BC5       0.119000
     23 H6          -1.8720    -2.1640    -0.5780 ha         1 BC5       0.135000
     24 H7           2.4400     2.0290    -0.7570 ha         1 BC5       0.113500
     25 H8           4.9080     2.0600    -0.7380 ha         1 BC5       0.114000
     26 H9           4.9690    -1.9850     0.7470 ha         1 BC5       0.114000
     27 H10          2.5010    -2.0330     0.7550 ha         1 BC5       0.113500
     28 H11          6.9580     0.9430    -0.1370 hn         1 BC5       0.457000
     29 H12          6.9850    -0.6910     0.4600 hn         1 BC5       0.457000
@<TRIPOS>BOND
     1     1     2 1   
     2     1     3 2   
     3     1     4 2   
     4     1     5 1   
     5     2    18 1   
     6     2    19 1   
     7     5     6 ar  
     8     5    10 ar  
     9     6     7 ar  
    10     6    20 1   
    11     7     8 ar  
    12     7    21 1   
    13     8     9 ar  
    14     8    11 1   
    15     9    10 ar  
    16     9    22 1   
    17    10    23 1   
    18    11    12 ar  
    19    11    16 ar  
    20    12    13 ar  
    21    12    24 1   
    22    13    14 ar  
    23    13    25 1   
    24    14    15 ar  
    25    14    17 1   
    26    15    16 ar  
    27    15    26 1   
    28    16    27 1   
    29    17    28 1   
    30    17    29 1   
@<TRIPOS>SUBSTRUCTURE
     1 BC5         1 TEMP              0 ****  ****    0 ROOT
