@<TRIPOS>MOLECULE
BC6
   78    79     1     0     0
SMALL
No Charge or Current Charge


@<TRIPOS>ATOM
      1 O37         41.3520    -4.9900    41.8730 o          1 BC6      -0.584100
      2 C21         41.1460    -5.6320    40.8490 c          1 BC6       0.610300
      3 C20         41.3460    -7.1420    40.8130 ce         1 BC6      -0.173400
      4 C36         42.1640    -7.7310    41.9650 c3         1 BC6      -0.045900
      5 C19         40.8240    -7.9610    39.8590 c2         1 BC6      -0.170200
      6 C18         40.9560    -9.4770    39.8050 c3         1 BC6      -0.044200
      7 C17         40.1820   -10.1350    38.6340 c3         1 BC6      -0.074400
      8 C16         38.6290    -9.9990    38.6740 c3         1 BC6      -0.058700
      9 C35         38.0250   -10.7110    39.9160 c3         1 BC6      -0.088100
     10 N22         40.6690    -4.9630    39.7290 ns         1 BC6      -0.165000
     11 C3          40.7970    -5.2250    38.3450 ca         1 BC6       0.017000
     12 C4          39.7700    -4.8090    37.4820 ca         1 BC6      -0.249000
     13 C5          39.8950    -4.9950    36.0990 ca         1 BC6       0.159100
     14 O36         38.8960    -4.5960    35.2670 oh         1 BC6      -0.532100
     15 C6          41.0530    -5.5760    35.5680 ca         1 BC6      -0.164000
     16 C1          42.1000    -5.9850    36.4160 ca         1 BC6      -0.013300
     17 C2          41.9650    -5.8040    37.8080 ca         1 BC6      -0.170000
     18 C7          43.3770    -6.5820    35.8220 c3         1 BC6      -0.037100
     19 C8          43.3800    -8.1330    35.7120 c3         1 BC6      -0.047700
     20 C25         43.4410    -8.7940    37.1070 c3         1 BC6      -0.091100
     21 C9          42.2020    -8.6510    34.8310 c3         1 BC6      -0.069400
     22 C10         42.1170   -10.1880    34.6010 c3         1 BC6       0.187300
     23 O26         43.4470   -10.6580    34.2590 os         1 BC6      -0.442000
     24 C27         43.6380   -12.0850    34.2680 c3         1 BC6       0.146900
     25 C11         41.0820   -10.6100    33.4850 c3         1 BC6       0.146300
     26 O28         41.5210   -10.1620    32.1850 oh         1 BC6      -0.704000
     27 C12         39.6250   -10.1060    33.7410 c3         1 BC6      -0.062500
     28 C29         38.6280   -10.5570    32.6450 c3         1 BC6      -0.090100
     29 C13         39.0970   -10.5700    35.0940 c2         1 BC6      -0.190200
     30 C14         38.5160    -9.8420    36.0720 c2         1 BC6      -0.141400
     31 C30         38.2820    -8.3300    36.0280 c3         1 BC6      -0.056900
     32 C15         37.9870   -10.5160    37.3490 c3         1 BC6       0.231500
     33 O31         36.5650   -10.2900    37.4230 os         1 BC6      -0.467100
     34 C32         35.7530   -10.9950    36.5910 c          1 BC6       0.642100
     35 O33         36.0840   -11.8860    35.8300 o          1 BC6      -0.545000
     36 N34         34.4810   -10.6170    36.7770 nt         1 BC6      -0.593000
     37 H22         40.3590    -4.0210    39.9260 hn         1 BC6       0.156000
     38 H361        42.8160    -8.5450    41.6290 hc         1 BC6       0.047700
     39 H362        42.8230    -6.9900    42.4340 hc         1 BC6       0.047700
     40 H363        41.5090    -8.1320    42.7470 hc         1 BC6       0.047700
     41 H19         40.2110    -7.5570    39.0550 ha         1 BC6       0.177000
     42 H181        42.0140    -9.7440    39.6990 hc         1 BC6       0.053700
     43 H182        40.6370    -9.9200    40.7550 hc         1 BC6       0.053700
     44 H171        40.5620    -9.7060    37.7000 hc         1 BC6       0.048200
     45 H172        40.4420   -11.2010    38.6010 hc         1 BC6       0.048200
     46 H16         38.3770    -8.9370    38.7670 hc         1 BC6       0.061700
     47 H351        38.2760   -11.7780    39.9140 hc         1 BC6       0.037700
     48 H352        38.3980   -10.2700    40.8470 hc         1 BC6       0.037700
     49 H353        36.9330   -10.6170    39.9360 hc         1 BC6       0.037700
     50 H15         38.1910   -11.5950    37.3010 h1         1 BC6       0.068700
     51 H4          38.8780    -4.3430    37.8940 ha         1 BC6       0.118000
     52 H2          42.7790    -6.0950    38.4680 ha         1 BC6       0.126000
     53 H36         38.1860    -4.1970    35.8120 ho         1 BC6       0.465000
     54 H6          41.1410    -5.7030    34.4920 ha         1 BC6       0.133000
     55 H7C1        43.5450    -6.1620    34.8220 hc         1 BC6       0.051700
     56 H7C2        44.2440    -6.2650    36.4160 hc         1 BC6       0.051700
     57 H8          44.3120    -8.4000    35.1990 hc         1 BC6       0.064700
     58 H251        43.5180    -9.8850    37.0330 hc         1 BC6       0.033367
     59 H252        44.3130    -8.4360    37.6670 hc         1 BC6       0.033367
     60 H253        42.5470    -8.5480    37.6830 hc         1 BC6       0.033367
     61 H9C1        41.2600    -8.3360    35.2930 hc         1 BC6       0.056200
     62 H9C2        42.2530    -8.1500    33.8580 hc         1 BC6       0.056200
     63 H10         41.8040   -10.6470    35.5490 h1         1 BC6       0.032700
     64 H11         41.0340   -11.7070    33.4850 h1         1 BC6       0.025700
     65 H271        43.0580   -12.5700    33.4730 h1         1 BC6       0.025367
     66 H272        44.6960   -12.3250    34.1040 h1         1 BC6       0.025367
     67 H273        43.3370   -12.5130    35.2330 h1         1 BC6       0.025367
     68 H28         40.9830   -10.6430    31.5180 ho         1 BC6       0.500000
     69 H12         39.6580    -9.0140    33.6900 hc         1 BC6       0.069700
     70 H291        37.6150   -10.2160    32.8900 hc         1 BC6       0.039033
     71 H292        38.8880   -10.1370    31.6660 hc         1 BC6       0.039033
     72 H293        38.6070   -11.6500    32.5610 hc         1 BC6       0.039033
     73 H13         39.1910   -11.6490    35.2310 ha         1 BC6       0.175000
     74 H301        38.9210    -7.8110    36.7510 hc         1 BC6       0.045367
     75 H302        38.4840    -7.8860    35.0510 hc         1 BC6       0.045367
     76 H303        37.2420    -8.0770    36.2660 hc         1 BC6       0.045367
     77 H341        34.2780    -9.8870    37.4400 hn         1 BC6       0.322500
     78 H342        33.7470   -11.0620    36.2490 hn         1 BC6       0.322500
@<TRIPOS>BOND
     1     1     2 2   
     2     2     3 1   
     3     2    10 1   
     4     3     4 1   
     5     3     5 2   
     6     4    38 1   
     7     4    39 1   
     8     4    40 1   
     9     5     6 1   
    10     5    41 1   
    11     6     7 1   
    12     6    42 1   
    13     6    43 1   
    14     7     8 1   
    15     7    44 1   
    16     7    45 1   
    17     8     9 1   
    18     8    32 1   
    19     8    46 1   
    20     9    47 1   
    21     9    48 1   
    22     9    49 1   
    23    10    11 1   
    24    10    37 1   
    25    11    12 ar  
    26    11    17 ar  
    27    12    13 ar  
    28    12    51 1   
    29    13    14 1   
    30    13    15 ar  
    31    14    53 1   
    32    15    16 ar  
    33    15    54 1   
    34    16    17 ar  
    35    16    18 1   
    36    17    52 1   
    37    18    19 1   
    38    18    55 1   
    39    18    56 1   
    40    19    20 1   
    41    19    21 1   
    42    19    57 1   
    43    20    58 1   
    44    20    59 1   
    45    20    60 1   
    46    21    22 1   
    47    21    61 1   
    48    21    62 1   
    49    22    23 1   
    50    22    25 1   
    51    22    63 1   
    52    23    24 1   
    53    24    65 1   
    54    24    66 1   
    55    24    67 1   
    56    25    26 1   
    57    25    27 1   
    58    25    64 1   
    59    26    68 1   
    60    27    28 1   
    61    27    29 1   
    62    27    69 1   
    63    28    70 1   
    64    28    71 1   
    65    28    72 1   
    66    29    30 2   
    67    29    73 1   
    68    30    31 1   
    69    30    32 1   
    70    31    74 1   
    71    31    75 1   
    72    31    76 1   
    73    32    33 1   
    74    32    50 1   
    75    33    34 1   
    76    34    35 2   
    77    34    36 1   
    78    36    77 1   
    79    36    78 1   
@<TRIPOS>SUBSTRUCTURE
     1 BC6         1 TEMP              0 ****  ****    0 ROOT
