@<TRIPOS>MOLECULE
BC6
   78    79     1     0     0
SMALL
abcg2


@<TRIPOS>ATOM
      1 O37         41.3360    -5.3210    41.8890 o          1 BC6      -0.584100
      2 C21         41.2130    -5.8070    40.7750 c          1 BC6       0.610300
      3 C20         41.5600    -7.2390    40.5300 ce         1 BC6      -0.173400
      4 C36         42.9190    -7.6520    41.0040 c3         1 BC6      -0.045900
      5 C19         40.6120    -8.0490    40.0530 c2         1 BC6      -0.170200
      6 C18         40.7080    -9.5320    39.8760 c3         1 BC6      -0.044200
      7 C17         39.9970   -10.0430    38.6220 c3         1 BC6      -0.074400
      8 C16         38.4720    -9.9070    38.6170 c3         1 BC6      -0.058700
      9 C35         37.8320   -10.6650    39.7770 c3         1 BC6      -0.088100
     10 N22         40.7030    -5.0770    39.7480 ns         1 BC6      -0.165000
     11 C3          40.8200    -5.3090    38.3660 ca         1 BC6       0.017000
     12 C4          39.7580    -4.9370    37.5490 ca         1 BC6      -0.249000
     13 C5          39.8720    -5.0810    36.1710 ca         1 BC6       0.159100
     14 O36         38.8790    -4.7310    35.3290 oh         1 BC6      -0.532100
     15 C6          41.0290    -5.6190    35.6170 ca         1 BC6      -0.164000
     16 C1          42.0860    -6.0040    36.4340 ca         1 BC6      -0.013300
     17 C2          41.9860    -5.8230    37.8110 ca         1 BC6      -0.170000
     18 C7          43.3270    -6.6120    35.8370 c3         1 BC6      -0.037100
     19 C8          43.3260    -8.1540    35.8000 c3         1 BC6      -0.047700
     20 C25         43.2930    -8.7490    37.2020 c3         1 BC6      -0.091100
     21 C9          42.1940    -8.6560    34.9030 c3         1 BC6      -0.069400
     22 C10         42.0770   -10.1700    34.7680 c3         1 BC6       0.187300
     23 O26         43.3650   -10.6970    34.5480 os         1 BC6      -0.442000
     24 C27         43.4710   -12.0890    34.6890 c3         1 BC6       0.146900
     25 C11         41.1080   -10.5890    33.6510 c3         1 BC6       0.146300
     26 O28         41.6890   -10.2040    32.4250 oh         1 BC6      -0.704000
     27 C12         39.6920   -10.0120    33.8240 c3         1 BC6      -0.062500
     28 C29         38.7800   -10.4670    32.6790 c3         1 BC6      -0.090100
     29 C13         39.0970   -10.4680    35.1210 c2         1 BC6      -0.190200
     30 C14         38.5170    -9.7280    36.0670 c2         1 BC6      -0.141400
     31 C30         38.3810    -8.2360    36.0340 c3         1 BC6      -0.056900
     32 C15         37.9410   -10.4230    37.2760 c3         1 BC6       0.231500
     33 O31         36.5170   -10.2230    37.2850 os         1 BC6      -0.467100
     34 C32         35.7460   -11.0700    36.5950 c          1 BC6       0.642100
     35 O33         36.1470   -12.0750    36.0440 o          1 BC6      -0.545000
     36 N34         34.4670   -10.6490    36.5860 nt         1 BC6      -0.593000
     37 H22         40.3180    -4.1810    40.0160 hn         1 BC6       0.156000
     38 H361        43.7010    -7.0820    40.4960 hc         1 BC6       0.047700
     39 H362        43.0340    -7.4680    42.0720 hc         1 BC6       0.047700
     40 H363        43.1140    -8.7060    40.8260 hc         1 BC6       0.047700
     41 H19         39.6590    -7.6000    39.7830 ha         1 BC6       0.177000
     42 H181        41.7540    -9.8410    39.8230 hc         1 BC6       0.053700
     43 H182        40.3040   -10.0270    40.7640 hc         1 BC6       0.053700
     44 H171        40.4160    -9.5280    37.7530 hc         1 BC6       0.048200
     45 H172        40.2540   -11.1000    38.4930 hc         1 BC6       0.048200
     46 H16         38.2030    -8.8470    38.7060 hc         1 BC6       0.061700
     47 H351        38.0750   -11.7290    39.7290 hc         1 BC6       0.037700
     48 H352        38.1810   -10.2890    40.7390 hc         1 BC6       0.037700
     49 H353        36.7470   -10.5690    39.7760 hc         1 BC6       0.037700
     50 H15         38.1570   -11.4940    37.2130 h1         1 BC6       0.068700
     51 H4          38.8500    -4.5400    37.9890 ha         1 BC6       0.118000
     52 H2          42.8310    -6.0630    38.4430 ha         1 BC6       0.126000
     53 H36         38.1360    -4.3620    35.8180 ho         1 BC6       0.465000
     54 H6          41.1010    -5.7360    34.5420 ha         1 BC6       0.133000
     55 H7C1        43.4580    -6.2410    34.8170 hc         1 BC6       0.051700
     56 H7C2        44.2020    -6.2820    36.4030 hc         1 BC6       0.051700
     57 H8          44.2780    -8.4380    35.3420 hc         1 BC6       0.064700
     58 H251        43.4070    -9.8330    37.1820 hc         1 BC6       0.033367
     59 H252        44.1080    -8.3490    37.8090 hc         1 BC6       0.033367
     60 H253        42.3600    -8.5150    37.7160 hc         1 BC6       0.033367
     61 H9C1        41.2440    -8.2900    35.3000 hc         1 BC6       0.056200
     62 H9C2        42.3100    -8.2020    33.9140 hc         1 BC6       0.056200
     63 H10         41.6740   -10.5740    35.7110 h1         1 BC6       0.032700
     64 H11         41.0060   -11.6860    33.6910 h1         1 BC6       0.025700
     65 H271        43.0560   -12.6410    33.8380 h1         1 BC6       0.025367
     66 H272        44.5300   -12.3360    34.7600 h1         1 BC6       0.025367
     67 H273        42.9740   -12.4490    35.5980 h1         1 BC6       0.025367
     68 H28         41.2660   -10.6980    31.7170 ho         1 BC6       0.500000
     69 H12         39.7540    -8.9220    33.7910 hc         1 BC6       0.069700
     70 H291        37.7660   -10.0980    32.8310 hc         1 BC6       0.039033
     71 H292        39.1180   -10.0910    31.7120 hc         1 BC6       0.039033
     72 H293        38.7290   -11.5570    32.6230 hc         1 BC6       0.039033
     73 H13         39.1130   -11.5460    35.2700 ha         1 BC6       0.175000
     74 H301        39.0420    -7.7570    36.7610 hc         1 BC6       0.045367
     75 H302        38.6250    -7.8110    35.0620 hc         1 BC6       0.045367
     76 H303        37.3650    -7.9240    36.2820 hc         1 BC6       0.045367
     77 H341        34.1680    -9.8830    37.1650 hn         1 BC6       0.322500
     78 H342        33.7560   -11.2770    36.2530 hn         1 BC6       0.322500
@<TRIPOS>BOND
     1     1     2 2   
     2     2     3 1   
     3     2    10 1   
     4     3     4 1   
     5     3     5 2   
     6     4    38 1   
     7     4    39 1   
     8     4    40 1   
     9     5     6 1   
    10     5    41 1   
    11     6     7 1   
    12     6    42 1   
    13     6    43 1   
    14     7     8 1   
    15     7    44 1   
    16     7    45 1   
    17     8     9 1   
    18     8    32 1   
    19     8    46 1   
    20     9    47 1   
    21     9    48 1   
    22     9    49 1   
    23    10    11 1   
    24    10    37 1   
    25    11    12 ar  
    26    11    17 ar  
    27    12    13 ar  
    28    12    51 1   
    29    13    14 1   
    30    13    15 ar  
    31    14    53 1   
    32    15    16 ar  
    33    15    54 1   
    34    16    17 ar  
    35    16    18 1   
    36    17    52 1   
    37    18    19 1   
    38    18    55 1   
    39    18    56 1   
    40    19    20 1   
    41    19    21 1   
    42    19    57 1   
    43    20    58 1   
    44    20    59 1   
    45    20    60 1   
    46    21    22 1   
    47    21    61 1   
    48    21    62 1   
    49    22    23 1   
    50    22    25 1   
    51    22    63 1   
    52    23    24 1   
    53    24    65 1   
    54    24    66 1   
    55    24    67 1   
    56    25    26 1   
    57    25    27 1   
    58    25    64 1   
    59    26    68 1   
    60    27    28 1   
    61    27    29 1   
    62    27    69 1   
    63    28    70 1   
    64    28    71 1   
    65    28    72 1   
    66    29    30 2   
    67    29    73 1   
    68    30    31 1   
    69    30    32 1   
    70    31    74 1   
    71    31    75 1   
    72    31    76 1   
    73    32    33 1   
    74    32    50 1   
    75    33    34 1   
    76    34    35 2   
    77    34    36 1   
    78    36    77 1   
    79    36    78 1   
@<TRIPOS>SUBSTRUCTURE
     1 BC6         1 TEMP              0 ****  ****    0 ROOT
