@<TRIPOS>MOLECULE
BC7
   89    93     1     0     0
SMALL
abcg2


@<TRIPOS>ATOM
      1 C1           0.7000     6.5610    -0.1140 c          1 BC7       0.608100
      2 C4           1.9330     4.6180    -1.0480 c6         1 BC7       0.108000
      3 C5           2.3440     3.5340    -0.0520 c6         1 BC7      -0.032100
      4 C6           1.1210     2.7470     0.2530 cc         1 BC7      -0.145300
      5 C8          -0.4770     4.4870    -0.6050 c6         1 BC7       0.174300
      6 C9          -0.9680     2.0540     0.3880 cd         1 BC7       0.318500
      7 C12          2.1240     0.6460     1.1880 c3         1 BC7       0.040600
      8 C13          2.5680    -0.2800     0.0510 c3         1 BC7       0.155300
      9 C15          3.6640    -1.2060     0.5760 c3         1 BC7       0.137800
     10 C17          4.9220    -1.5520    -1.4920 c6         1 BC7       0.164300
     11 C19          7.1100    -2.2660    -0.4500 c6         1 BC7      -0.082700
     12 C18          6.3270    -1.1110    -1.0800 c6         1 BC7      -0.109900
     13 C20          6.2670    -2.9030     0.6610 c6         1 BC7      -0.109900
     14 C22          8.5290    -1.8590     0.0160 c3         1 BC7       0.188000
     15 C23         -2.4130     1.8390     0.2920 ca         1 BC7      -0.068500
     16 C24         -3.3120     2.8610     0.0070 ca         1 BC7      -0.114000
     17 C25         -4.6670     2.5880    -0.0840 ca         1 BC7      -0.053000
     18 C26         -5.1570     1.3030     0.0890 ca         1 BC7      -0.185300
     19 C27         -4.2630     0.2560     0.3760 ca         1 BC7      -0.072000
     20 C28         -2.9130     0.5490     0.4830 ca         1 BC7      -0.114000
     21 C21          4.8690    -3.2590     0.1550 c6         1 BC7       0.164300
     22 C30         -3.3930    -2.3690     0.2980 c3         1 BC7      -0.076400
     23 C31         -3.8130    -3.8240     0.2190 c          1 BC7       0.619100
     24 C34         -1.4230    -4.3510    -0.2360 c5         1 BC7       0.101000
     25 C35         -0.8150    -5.6640    -0.7170 c5         1 BC7      -0.094900
     26 C36         -1.6610    -6.7200    -0.0130 c5         1 BC7      -0.094900
     27 C37         -3.0660    -6.1320    -0.0660 c5         1 BC7       0.101000
     28 C38         -6.6210     1.0410    -0.0760 c3         1 BC7       0.358300
     29 C43          2.0070     7.3160    -0.0590 c3         1 BC7      -0.177100
     30 C44          9.2750    -3.0640     0.5940 c3         1 BC7      -0.101600
     31 C45          9.3380    -1.2920    -1.1470 c3         1 BC7      -0.101600
     32 C7          -0.1670     3.1480    -0.0130 cd         1 BC7      -0.192300
     33 F39         -6.8790     0.3070    -1.1690 f          1 BC7      -0.109000
     34 F40         -7.1340     0.3680     0.9660 f          1 BC7      -0.109000
     35 F41         -7.3330     2.1650    -0.1930 f          1 BC7      -0.109000
     36 N10         -0.2060     1.0880     0.8810 nc         1 BC7      -0.517800
     37 N11          1.0420     1.5180     0.8010 na         1 BC7       0.158800
     38 N16          4.1390    -2.1440    -0.4190 n3         1 BC7      -0.706600
     39 N3           0.7290     5.3010    -0.6090 n          1 BC7      -0.417800
     40 N33         -2.8290    -4.6910    -0.0260 n          1 BC7      -0.415800
     41 O14          1.4900    -0.9730    -0.5190 oh         1 BC7      -0.624000
     42 O2          -0.3400     7.0830     0.2680 o          1 BC7      -0.598100
     43 O32         -4.9800    -4.1570     0.3850 o          1 BC7      -0.585100
     44 O42          8.4690    -0.8200     0.9870 oh         1 BC7      -0.661000
     45 S29         -4.8800    -1.3870     0.5990 ss         1 BC7      -0.042000
     46 H1           2.7430     5.3250    -1.1950 h1         1 BC7       0.056700
     47 H2           1.7350     4.1600    -2.0200 h1         1 BC7       0.056700
     48 H3           3.1270     2.9170    -0.4980 hc         1 BC7       0.059700
     49 H4           2.7620     3.9820     0.8540 hc         1 BC7       0.059700
     50 H5          -0.8670     4.3870    -1.6250 h1         1 BC7       0.071700
     51 H6          -1.2330     5.0130    -0.0250 h1         1 BC7       0.071700
     52 H7           1.7810     0.0660     2.0460 h1         1 BC7       0.070200
     53 H8           2.9640     1.2520     1.5260 h1         1 BC7       0.070200
     54 H9           2.9690     0.3450    -0.7540 h1         1 BC7       0.077700
     55 H10          4.4570    -0.5840     1.0210 h1         1 BC7       0.034200
     56 H11          3.2470    -1.7900     1.4040 h1         1 BC7       0.034200
     57 H12          4.3780    -0.7120    -1.9280 h1         1 BC7       0.053950
     58 H13          5.0080    -2.3010    -2.2860 h1         1 BC7       0.053950
     59 H14          7.2470    -3.0330    -1.2260 hc         1 BC7       0.052700
     60 H15          6.8370    -0.7400    -1.9720 hc         1 BC7       0.045950
     61 H16          6.2760    -0.2710    -0.3810 hc         1 BC7       0.045950
     62 H17          6.7370    -3.8160     1.0320 hc         1 BC7       0.045950
     63 H18          6.1840    -2.2240     1.5180 hc         1 BC7       0.045950
     64 H19         -2.9820     3.8790    -0.1400 ha         1 BC7       0.126000
     65 H20         -5.3400     3.4050    -0.3040 ha         1 BC7       0.132000
     66 H21         -2.2020    -0.2290     0.7130 ha         1 BC7       0.130000
     67 H22          4.9660    -4.0300    -0.6190 h1         1 BC7       0.053950
     68 H23          4.2740    -3.6970     0.9610 h1         1 BC7       0.053950
     69 H24         -2.6660    -2.2470     1.1030 h1         1 BC7       0.083200
     70 H25         -2.9220    -2.0480    -0.6330 h1         1 BC7       0.083200
     71 H27         -1.3070    -3.5560    -0.9750 h1         1 BC7       0.052950
     72 H28         -0.9250    -5.7510    -1.7990 hc         1 BC7       0.055700
     73 H29          0.2460    -5.7320    -0.4820 hc         1 BC7       0.055700
     74 H30         -1.6090    -7.6970    -0.4890 hc         1 BC7       0.055700
     75 H31         -1.3400    -6.8350     1.0240 hc         1 BC7       0.055700
     76 H32         -3.5780    -6.4090    -0.9920 h1         1 BC7       0.052950
     77 H33         -3.6920    -6.4490     0.7690 h1         1 BC7       0.052950
     78 H34          2.4020     7.5040    -1.0580 hc         1 BC7       0.060033
     79 H35          1.8390     8.2750     0.4250 hc         1 BC7       0.060033
     80 H36          2.7730     6.7780     0.5010 hc         1 BC7       0.060033
     81 H37          9.3030    -3.8920    -0.1160 hc         1 BC7       0.042700
     82 H38         10.3050    -2.7940     0.8330 hc         1 BC7       0.042700
     83 H39          8.8110    -3.4320     1.5100 hc         1 BC7       0.042700
     84 H40          8.9200    -0.3570    -1.5210 hc         1 BC7       0.042700
     85 H41         10.3660    -1.0950    -0.8380 hc         1 BC7       0.042700
     86 H42          9.3690    -2.0010    -1.9750 hc         1 BC7       0.042700
     87 H44          1.0890    -1.5280     0.1570 ho         1 BC7       0.442000
     88 H45          8.0520    -1.1670     1.7820 ho         1 BC7       0.438000
     89 H26         -0.9600    -4.0200     0.6990 h1         1 BC7       0.052950
@<TRIPOS>BOND
     1     1    29 1   
     2     1    39 1   
     3     1    42 2   
     4     2     3 1   
     5     2    39 1   
     6     2    46 1   
     7     2    47 1   
     8     3     4 1   
     9     3    48 1   
    10     3    49 1   
    11     4    32 2   
    12     4    37 1   
    13     5    32 1   
    14     5    39 1   
    15     5    50 1   
    16     5    51 1   
    17     6    15 1   
    18     6    32 1   
    19     6    36 2   
    20     7     8 1   
    21     7    37 1   
    22     7    52 1   
    23     7    53 1   
    24     8     9 1   
    25     8    41 1   
    26     8    54 1   
    27     9    38 1   
    28     9    55 1   
    29     9    56 1   
    30    10    12 1   
    31    10    38 1   
    32    10    57 1   
    33    10    58 1   
    34    11    12 1   
    35    11    13 1   
    36    11    14 1   
    37    11    59 1   
    38    12    60 1   
    39    12    61 1   
    40    13    21 1   
    41    13    62 1   
    42    13    63 1   
    43    14    30 1   
    44    14    31 1   
    45    14    44 1   
    46    15    16 ar  
    47    15    20 ar  
    48    16    17 ar  
    49    16    64 1   
    50    17    18 ar  
    51    17    65 1   
    52    18    19 ar  
    53    18    28 1   
    54    19    20 ar  
    55    19    45 1   
    56    20    66 1   
    57    21    38 1   
    58    21    67 1   
    59    21    68 1   
    60    22    23 1   
    61    22    45 1   
    62    22    69 1   
    63    22    70 1   
    64    23    40 1   
    65    23    43 2   
    66    24    25 1   
    67    24    40 1   
    68    24    71 1   
    69    24    89 1   
    70    25    26 1   
    71    25    72 1   
    72    25    73 1   
    73    26    27 1   
    74    26    74 1   
    75    26    75 1   
    76    27    40 1   
    77    27    76 1   
    78    27    77 1   
    79    28    33 1   
    80    28    34 1   
    81    28    35 1   
    82    29    78 1   
    83    29    79 1   
    84    29    80 1   
    85    30    81 1   
    86    30    82 1   
    87    30    83 1   
    88    31    84 1   
    89    31    85 1   
    90    31    86 1   
    91    36    37 1   
    92    41    87 1   
    93    44    88 1   
@<TRIPOS>SUBSTRUCTURE
     1 BC7         1 TEMP              0 ****  ****    0 ROOT
