@<TRIPOS>MOLECULE
BC7
   89    93     1     0     0
SMALL
No Charge or Current Charge


@<TRIPOS>ATOM
      1 C1           0.8540     5.9620    -1.0990 c          1 BC7       0.608100
      2 C4           2.3610     4.0820    -0.2600 c6         1 BC7       0.108000
      3 C5           2.5220     3.0150     0.8550 c6         1 BC7      -0.032100
      4 C6           1.2920     2.1700     0.8760 cc         1 BC7      -0.145300
      5 C8          -0.1840     4.0980     0.2320 c6         1 BC7       0.174300
      6 C9          -0.8480     1.5760     0.6890 cd         1 BC7       0.318500
      7 C12          2.1260    -0.1830     1.4350 c3         1 BC7       0.040600
      8 C13          2.9850    -0.6230     0.2260 c3         1 BC7       0.155300
      9 C15          4.2370    -1.4320     0.6470 c3         1 BC7       0.137800
     10 C17          5.4460    -1.3150    -1.5600 c6         1 BC7       0.164300
     11 C19          7.8130    -1.5460    -0.5650 c6         1 BC7      -0.082700
     12 C18          6.7190    -0.5630    -1.0950 c6         1 BC7      -0.109900
     13 C20          7.1730    -2.5000     0.4970 c6         1 BC7      -0.109900
     14 C22          9.1290    -0.8220    -0.0640 c3         1 BC7       0.188000
     15 C23         -2.3060     1.6160     0.4500 ca         1 BC7      -0.068500
     16 C24         -3.0830     2.7060     0.8830 ca         1 BC7      -0.114000
     17 C25         -4.4720     2.7200     0.6840 ca         1 BC7      -0.053000
     18 C26         -5.1310     1.6320     0.0650 ca         1 BC7      -0.185300
     19 C27         -4.3570     0.5110    -0.3360 ca         1 BC7      -0.072000
     20 C28         -2.9610     0.5160    -0.1380 ca         1 BC7      -0.114000
     21 C21          5.8830    -3.1740    -0.0380 c6         1 BC7       0.164300
     22 C30         -4.1480    -2.3690    -0.5070 c3         1 BC7      -0.076400
     23 C31         -4.7810    -3.7250    -0.8610 c          1 BC7       0.619100
     24 C34         -2.9290    -4.8730     0.4690 c5         1 BC7       0.101000
     25 C35         -2.5220    -6.3690     0.4390 c5         1 BC7      -0.094900
     26 C36         -3.9010    -7.0730     0.4510 c5         1 BC7      -0.094900
     27 C37         -4.6860    -6.2440    -0.5970 c5         1 BC7       0.101000
     28 C38         -6.6590     1.6730    -0.1400 c3         1 BC7       0.358300
     29 C43          2.0760     6.6290    -1.7370 c3         1 BC7      -0.177100
     30 C44         10.2060    -1.8280     0.4200 c3         1 BC7      -0.101600
     31 C45          9.7620     0.0750    -1.1600 c3         1 BC7      -0.101600
     32 C7           0.0660     2.6550     0.5970 cd         1 BC7      -0.192300
     33 F39         -6.9950     1.5650    -1.4460 f          1 BC7      -0.109000
     34 F40         -7.2830     0.6690     0.5190 f          1 BC7      -0.109000
     35 F41         -7.2220     2.8220     0.3010 f          1 BC7      -0.109000
     36 N10         -0.2330     0.4400     0.9910 nc         1 BC7      -0.517800
     37 N11          1.0950     0.8130     1.0990 na         1 BC7       0.158800
     38 N16          4.8730    -2.1750    -0.4830 n3         1 BC7      -0.706600
     39 N3           1.0280     4.7880    -0.3310 n          1 BC7      -0.417800
     40 N33         -4.1620    -4.8840    -0.3500 n          1 BC7      -0.415800
     41 O14          2.2360    -1.4540    -0.6690 oh         1 BC7      -0.624000
     42 O2          -0.2560     6.4590    -1.2410 o          1 BC7      -0.598100
     43 O32         -5.7860    -3.8150    -1.5550 o          1 BC7      -0.585100
     44 O42          8.8300     0.0290     1.0430 oh         1 BC7      -0.661000
     45 S29         -5.1320    -0.9200    -1.1100 ss         1 BC7      -0.042000
     46 H1           3.1670     4.8170    -0.1310 h1         1 BC7       0.056700
     47 H2           2.5300     3.5910    -1.2290 h1         1 BC7       0.056700
     48 H3           3.4320     2.4260     0.6830 hc         1 BC7       0.059700
     49 H4           2.6490     3.5170     1.8240 hc         1 BC7       0.059700
     50 H5          -1.0000     4.1430    -0.5030 h1         1 BC7       0.071700
     51 H6          -0.5170     4.6510     1.1220 h1         1 BC7       0.071700
     52 H7           1.6470    -1.0610     1.8850 h1         1 BC7       0.070200
     53 H8           2.7810     0.2620     2.1950 h1         1 BC7       0.070200
     54 H9           3.3310     0.2760    -0.3010 h1         1 BC7       0.077700
     55 H10          4.9520    -0.7510     1.1270 h1         1 BC7       0.034200
     56 H11          3.9250    -2.1520     1.4160 h1         1 BC7       0.034200
     57 H12          4.7070    -0.5870    -1.9230 h1         1 BC7       0.053950
     58 H13          5.7100    -1.9400    -2.4270 h1         1 BC7       0.053950
     59 H14          8.1260    -2.1700    -1.4150 hc         1 BC7       0.052700
     60 H15          7.1000     0.0100    -1.9500 hc         1 BC7       0.045950
     61 H16          6.4550     0.1750    -0.3250 hc         1 BC7       0.045950
     62 H17          7.8770    -3.2960     0.7700 hc         1 BC7       0.045950
     63 H18          6.9470    -1.9570     1.4230 hc         1 BC7       0.045950
     64 H19         -2.6170     3.5460     1.3900 ha         1 BC7       0.126000
     65 H20         -5.0310     3.5880     1.0270 ha         1 BC7       0.132000
     66 H21         -2.3650    -0.3300    -0.4640 ha         1 BC7       0.130000
     67 H22          6.1520    -3.8290    -0.8800 h1         1 BC7       0.053950
     68 H23          5.4620    -3.8250     0.7420 h1         1 BC7       0.053950
     69 H24         -4.0590    -2.3090     0.5840 h1         1 BC7       0.083200
     70 H25         -3.1460    -2.3440    -0.9490 h1         1 BC7       0.083200
     71 H27         -2.1430    -4.2320     0.0460 h1         1 BC7       0.052950
     72 H28         -1.9650    -6.6070    -0.4750 hc         1 BC7       0.055700
     73 H29         -1.8910    -6.6490     1.2900 hc         1 BC7       0.055700
     74 H30         -3.8410    -8.1350     0.1860 hc         1 BC7       0.055700
     75 H31         -4.3710    -7.0060     1.4400 hc         1 BC7       0.055700
     76 H32         -4.4560    -6.5650    -1.6220 h1         1 BC7       0.052950
     77 H33         -5.7710    -6.3100    -0.4430 h1         1 BC7       0.052950
     78 H34          2.6260     5.8940    -2.3350 hc         1 BC7       0.060033
     79 H35          1.8080     7.5100    -2.3320 hc         1 BC7       0.060033
     80 H36          2.7920     6.8910    -0.9510 hc         1 BC7       0.060033
     81 H37         10.4340    -2.5600    -0.3650 hc         1 BC7       0.042700
     82 H38         11.1380    -1.3120     0.6800 hc         1 BC7       0.042700
     83 H39          9.8800    -2.3730     1.3130 hc         1 BC7       0.042700
     84 H40          9.1110     0.9180    -1.4180 hc         1 BC7       0.042700
     85 H41         10.7160     0.4970    -0.8210 hc         1 BC7       0.042700
     86 H42          9.9530    -0.5030    -2.0720 hc         1 BC7       0.042700
     87 H44          2.9200    -2.0850    -1.0010 ho         1 BC7       0.442000
     88 H45          8.1190    -0.4180     1.5470 ho         1 BC7       0.438000
     89 H26         -3.1470    -4.5360     1.4910 h1         1 BC7       0.052950
@<TRIPOS>BOND
     1     1    29 1   
     2     1    39 1   
     3     1    42 2   
     4     2     3 1   
     5     2    39 1   
     6     2    46 1   
     7     2    47 1   
     8     3     4 1   
     9     3    48 1   
    10     3    49 1   
    11     4    32 2   
    12     4    37 1   
    13     5    32 1   
    14     5    39 1   
    15     5    50 1   
    16     5    51 1   
    17     6    15 1   
    18     6    32 1   
    19     6    36 2   
    20     7     8 1   
    21     7    37 1   
    22     7    52 1   
    23     7    53 1   
    24     8     9 1   
    25     8    41 1   
    26     8    54 1   
    27     9    38 1   
    28     9    55 1   
    29     9    56 1   
    30    10    12 1   
    31    10    38 1   
    32    10    57 1   
    33    10    58 1   
    34    11    12 1   
    35    11    13 1   
    36    11    14 1   
    37    11    59 1   
    38    12    60 1   
    39    12    61 1   
    40    13    21 1   
    41    13    62 1   
    42    13    63 1   
    43    14    30 1   
    44    14    31 1   
    45    14    44 1   
    46    15    16 ar  
    47    15    20 ar  
    48    16    17 ar  
    49    16    64 1   
    50    17    18 ar  
    51    17    65 1   
    52    18    19 ar  
    53    18    28 1   
    54    19    20 ar  
    55    19    45 1   
    56    20    66 1   
    57    21    38 1   
    58    21    67 1   
    59    21    68 1   
    60    22    23 1   
    61    22    45 1   
    62    22    69 1   
    63    22    70 1   
    64    23    40 1   
    65    23    43 2   
    66    24    25 1   
    67    24    40 1   
    68    24    71 1   
    69    24    89 1   
    70    25    26 1   
    71    25    72 1   
    72    25    73 1   
    73    26    27 1   
    74    26    74 1   
    75    26    75 1   
    76    27    40 1   
    77    27    76 1   
    78    27    77 1   
    79    28    33 1   
    80    28    34 1   
    81    28    35 1   
    82    29    78 1   
    83    29    79 1   
    84    29    80 1   
    85    30    81 1   
    86    30    82 1   
    87    30    83 1   
    88    31    84 1   
    89    31    85 1   
    90    31    86 1   
    91    36    37 1   
    92    41    87 1   
    93    44    88 1   
@<TRIPOS>SUBSTRUCTURE
     1 BC7         1 TEMP              0 ****  ****    0 ROOT
