@<TRIPOS>MOLECULE
BC8
   33    32     1     0     0
SMALL
bcc


@<TRIPOS>ATOM
      1 OAA         -4.9260    -1.7800     0.2980 o          1 BC8      -0.885800
      2 CAB         -4.3740    -0.6600     0.3140 c          1 BC8       0.937600
      3 OAH         -4.7930     0.3430     0.9320 o          1 BC8      -0.885800
      4 CAC         -3.1220    -0.4870    -0.5610 c3         1 BC8      -0.197400
      5 CAD         -1.8410    -0.2630     0.2460 c3         1 BC8       0.140800
      6 CAE         -1.7750     1.1520     0.8270 c3         1 BC8      -0.197400
      7 CAF         -1.4860     2.2790    -0.1740 c          1 BC8       0.937600
      8 OAL         -1.5200     3.4410     0.2800 o          1 BC8      -0.885800
      9 OAV         -1.2560     1.9610    -1.3590 o          1 BC8      -0.885800
     10 OAI         -1.8270    -1.2160     1.3120 oh         1 BC8      -0.659800
     11 CAJ         -0.5940    -0.5950    -0.6000 c          1 BC8       0.687100
     12 OAK         -0.6400    -1.2460    -1.6330 o          1 BC8      -0.672100
     13 N            0.5810    -0.2590    -0.0210 ns         1 BC8      -0.519900
     14 CA           1.7560    -1.0810    -0.1900 c3         1 BC8      -0.036300
     15 C            1.6170    -2.4250     0.5720 c          1 BC8       0.912600
     16 O            0.5930    -2.6030     1.2760 o          1 BC8      -0.869800
     17 OXT          2.5560    -3.2260     0.4390 o          1 BC8      -0.869800
     18 CB           3.0030    -0.3160     0.2530 c3         1 BC8      -0.040400
     19 CG           3.2430     0.9400    -0.5680 c3         1 BC8      -0.200400
     20 CD           4.5030     1.7470    -0.2120 c          1 BC8       0.922600
     21 OE1          5.2290     1.3270     0.7110 o          1 BC8      -0.892800
     22 OE2          4.6970     2.7790    -0.8900 o          1 BC8      -0.892800
     23 H2          -2.9980    -1.3750    -1.1830 hc         1 BC8       0.035700
     24 H3          -3.2550     0.3590    -1.2390 hc         1 BC8       0.035700
     25 H4          -2.7280     1.3530     1.3190 hc         1 BC8       0.035700
     26 H5          -1.0260     1.2030     1.6260 hc         1 BC8       0.035700
     27 H7          -0.9670    -1.6890     1.3320 ho         1 BC8       0.443000
     28 H8           0.5270     0.2030     0.8740 hn         1 BC8       0.293500
     29 H9           1.8650    -1.3120    -1.2530 h1         1 BC8       0.049700
     30 H11          2.9190    -0.0620     1.3150 hc         1 BC8       0.027200
     31 H12          3.8590    -0.9860     0.1690 hc         1 BC8       0.027200
     32 H13          3.3010     0.6720    -1.6300 hc         1 BC8       0.036200
     33 H14          2.3780     1.6070    -0.4960 hc         1 BC8       0.036200
@<TRIPOS>BOND
     1     1     2 1   
     2     2     3 1   
     3     2     4 1   
     4     4     5 1   
     5     4    23 1   
     6     4    24 1   
     7     5     6 1   
     8     5    10 1   
     9     5    11 1   
    10     6     7 1   
    11     6    25 1   
    12     6    26 1   
    13     7     8 1   
    14     7     9 1   
    15    10    27 1   
    16    11    12 2   
    17    11    13 1   
    18    13    14 1   
    19    13    28 1   
    20    14    15 1   
    21    14    18 1   
    22    14    29 1   
    23    15    16 1   
    24    15    17 1   
    25    18    19 1   
    26    18    30 1   
    27    18    31 1   
    28    19    20 1   
    29    19    32 1   
    30    19    33 1   
    31    20    21 1   
    32    20    22 1   
@<TRIPOS>SUBSTRUCTURE
     1 BC8         1 TEMP              0 ****  ****    0 ROOT
