@<TRIPOS>MOLECULE
BC8
   33    32     1     0     0
SMALL
No Charge or Current Charge


@<TRIPOS>ATOM
      1 OAA         -4.1200    -2.0670     1.4510 o          1 BC8      -0.780500
      2 CAB         -4.1270    -1.0100     0.8360 c          1 BC8       0.727000
      3 OAH         -5.0400    -0.2020     0.9270 o          1 BC8      -0.780500
      4 CAC         -3.0060    -0.7450    -0.1900 c3         1 BC8      -0.197400
      5 CAD         -1.7840     0.0560     0.3780 c3         1 BC8       0.164000
      6 CAE         -2.1130     1.5230     0.7960 c3         1 BC8      -0.197400
      7 CAF         -2.3390     2.4300    -0.4250 c          1 BC8       0.727000
      8 OAL         -3.4730     2.5770    -0.8530 o          1 BC8      -0.780500
      9 OAV         -1.3690     2.9950    -0.9040 o          1 BC8      -0.780500
     10 OAI         -1.3560    -0.6310     1.5850 oh         1 BC8      -0.722000
     11 CAJ         -0.5960     0.0470    -0.6790 c          1 BC8       0.620100
     12 OAK         -0.7370    -0.1540    -1.8840 o          1 BC8      -0.672100
     13 N            0.6560     0.0400    -0.0960 ns         1 BC8      -0.452900
     14 CA           1.7110    -0.9010    -0.5260 c3         1 BC8      -0.036300
     15 C            1.2980    -2.3580    -0.1190 c          1 BC8       0.702000
     16 O            0.4470    -2.5040     0.7530 o          1 BC8      -0.764500
     17 OXT          1.7600    -3.2910    -0.7600 o          1 BC8      -0.764500
     18 CB           3.0950    -0.5190     0.0580 c3         1 BC8      -0.040400
     19 CG           3.6130     0.8720    -0.3930 c3         1 BC8      -0.200400
     20 CD           5.0280     1.1170     0.1580 c          1 BC8       0.712000
     21 OE1          5.1410     1.6340     1.2580 o          1 BC8      -0.787500
     22 OE2          5.9810     0.7460    -0.5090 o          1 BC8      -0.787500
     23 H2          -2.5950    -1.7070    -0.5200 hc         1 BC8       0.035700
     24 H3          -3.3990    -0.1430    -1.0150 hc         1 BC8       0.035700
     25 H4          -3.0150     1.4860     1.4160 hc         1 BC8       0.035700
     26 H5          -1.2310     1.8790     1.3430 hc         1 BC8       0.035700
     27 H7          -0.7650    -1.3860     1.2920 ho         1 BC8       0.482000
     28 H8           0.6420     0.2550     0.8930 hn         1 BC8       0.293500
     29 H9           1.7770    -0.8740    -1.6220 h1         1 BC8       0.049700
     30 H11          3.0470    -0.5530     1.1540 hc         1 BC8       0.027200
     31 H12          3.8240    -1.2810    -0.2470 hc         1 BC8       0.027200
     32 H13          3.6310     0.8450    -1.4890 hc         1 BC8       0.036200
     33 H14          2.9140     1.6090     0.0210 hc         1 BC8       0.036200
@<TRIPOS>BOND
     1     1     2 1   
     2     2     3 1   
     3     2     4 1   
     4     4     5 1   
     5     4    23 1   
     6     4    24 1   
     7     5     6 1   
     8     5    10 1   
     9     5    11 1   
    10     6     7 1   
    11     6    25 1   
    12     6    26 1   
    13     7     8 1   
    14     7     9 1   
    15    10    27 1   
    16    11    12 2   
    17    11    13 1   
    18    13    14 1   
    19    13    28 1   
    20    14    15 1   
    21    14    18 1   
    22    14    29 1   
    23    15    16 1   
    24    15    17 1   
    25    18    19 1   
    26    18    30 1   
    27    18    31 1   
    28    19    20 1   
    29    19    32 1   
    30    19    33 1   
    31    20    21 1   
    32    20    22 1   
@<TRIPOS>SUBSTRUCTURE
     1 BC8         1 TEMP              0 ****  ****    0 ROOT
