@<TRIPOS>MOLECULE
BC9
   76    77     1     0     0
SMALL
No Charge or Current Charge


@<TRIPOS>ATOM
      1 C1          -4.0670    -2.0320    -0.2780 cy         1 BC9      -0.091700
      2 C2          -5.3020    -1.3550    -1.0140 cy         1 BC9      -0.175700
      3 C3          -6.0260    -2.7450    -0.8050 cy         1 BC9      -0.069400
      4 C5          -4.5900    -3.3400    -0.9810 cy         1 BC9      -0.108400
      5 C6          -2.6340    -1.5650    -0.6240 c3         1 BC9       0.200300
      6 C7          -1.5360    -2.5500    -0.1460 c3         1 BC9      -0.074400
      7 C8          -0.1240    -2.1770    -0.6580 c3         1 BC9      -0.074400
      8 C9           0.9620    -3.2320    -0.3410 c3         1 BC9      -0.059200
      9 C10          2.3080    -2.8210    -0.9220 c2         1 BC9      -0.124200
     10 C11          3.5250    -2.8050    -0.3180 ce         1 BC9      -0.085900
     11 C12          3.7230    -3.2260     1.0410 cg         1 BC9       0.297700
     12 C13          4.7520    -2.2110    -1.0170 c3         1 BC9       0.228500
     13 C14          5.0790    -0.7410    -0.5810 c3         1 BC9      -0.051700
     14 C15          6.0610    -0.0720    -1.5790 c3         1 BC9      -0.082100
     15 C16          3.7750     0.0980    -0.3860 c3         1 BC9      -0.082400
     16 C17          3.8810     1.6070    -0.0110 c3         1 BC9      -0.044700
     17 C18          4.7980     1.8600     1.2110 c3         1 BC9      -0.089100
     18 C19          2.4270     2.1290     0.2000 c3         1 BC9      -0.084400
     19 C20          2.2010     3.6550     0.4380 c3         1 BC9      -0.042700
     20 C21          2.2790     4.0740     1.9280 c3         1 BC9      -0.082100
     21 C22          0.9260     4.2100    -0.2890 c3         1 BC9      -0.069400
     22 C23         -0.5330     3.8920     0.2080 c3         1 BC9      -0.083700
     23 C24         -0.9660     4.7120     1.4550 c3         1 BC9      -0.079100
     24 C25         -0.9140     2.3780     0.2870 c3         1 BC9       0.172300
     25 C26         -2.4360     2.0940     0.2250 c3         1 BC9      -0.124400
     26 C27         -2.7220     0.8590    -0.6250 c          1 BC9       0.655100
     27 O28         -2.9620     0.9290    -1.8250 o          1 BC9      -0.522000
     28 O29         -2.4010    -0.3040     0.0300 os         1 BC9      -0.424100
     29 C30         -5.9890    -0.5760     0.2050 c          1 BC9       0.730000
     30 O31         -5.3520     0.0950     1.0050 o          1 BC9      -0.739500
     31 O32         -7.2070    -0.4920     0.2990 o          1 BC9      -0.739500
     32 O33          5.9080    -3.0450    -0.8570 oh         1 BC9      -0.653000
     33 O34         -0.4150     1.8180     1.5020 oh         1 BC9      -0.660000
     34 N35          3.8370    -3.5620     2.1530 n1         1 BC9      -0.471000
     35 H1          -4.1340    -2.1140     0.8150 hc         1 BC9       0.072700
     36 H2          -5.2220    -0.8890    -2.0010 hc         1 BC9       0.047700
     37 H3          -6.4590    -2.9640     0.1800 hc         1 BC9       0.039700
     38 H4          -6.7520    -3.0240    -1.5750 hc         1 BC9       0.039700
     39 H5          -4.2700    -3.4610    -2.0230 hc         1 BC9       0.021200
     40 H6          -4.3950    -4.2780    -0.4490 hc         1 BC9       0.021200
     41 H7          -2.5550    -1.4820    -1.7160 h1         1 BC9       0.049700
     42 H8          -1.5330    -2.5990     0.9500 hc         1 BC9       0.044700
     43 H9          -1.7820    -3.5550    -0.5080 hc         1 BC9       0.044700
     44 H10         -0.1710    -2.0340    -1.7450 hc         1 BC9       0.053200
     45 H11          0.1760    -1.2140    -0.2250 hc         1 BC9       0.053200
     46 H12          1.0150    -3.3660     0.7460 hc         1 BC9       0.055200
     47 H13          0.6620    -4.2000    -0.7610 hc         1 BC9       0.055200
     48 H14          2.2290    -2.4600    -1.9490 ha         1 BC9       0.171000
     49 H15          4.5060    -2.1630    -2.0870 h1         1 BC9       0.031700
     50 H16          5.5800    -0.8020     0.3920 hc         1 BC9       0.068700
     51 H17          5.5940     0.0470    -2.5640 hc         1 BC9       0.034367
     52 H18          6.3750     0.9180    -1.2280 hc         1 BC9       0.034367
     53 H19          6.9680    -0.6760    -1.7020 hc         1 BC9       0.034367
     54 H20          3.1840     0.0170    -1.3070 hc         1 BC9       0.043700
     55 H21          3.1790    -0.3760     0.4030 hc         1 BC9       0.043700
     56 H22          4.3100     2.1400    -0.8690 hc         1 BC9       0.040700
     57 H23          5.7820     1.3980     1.0800 hc         1 BC9       0.034367
     58 H24          4.9770     2.9320     1.3440 hc         1 BC9       0.034367
     59 H25          4.3510     1.4580     2.1290 hc         1 BC9       0.034367
     60 H26          1.8500     1.8330    -0.6850 hc         1 BC9       0.044700
     61 H27          2.0080     1.5670     1.0390 hc         1 BC9       0.044700
     62 H28          3.0390     4.1610    -0.0580 hc         1 BC9       0.028700
     63 H29          3.2900     3.9580     2.3290 hc         1 BC9       0.030700
     64 H30          2.0060     5.1300     2.0460 hc         1 BC9       0.030700
     65 H31          1.6100     3.4710     2.5500 hc         1 BC9       0.030700
     66 H32          1.0250     5.3030    -0.3250 hc         1 BC9       0.030200
     67 H33          0.9880     3.9000    -1.3400 hc         1 BC9       0.030200
     68 H34         -1.1540     4.2950    -0.6030 hc         1 BC9       0.045700
     69 H35         -0.7230     5.7730     1.3250 hc         1 BC9       0.036033
     70 H36         -2.0490     4.6380     1.6070 hc         1 BC9       0.036033
     71 H37         -0.4800     4.3640     2.3720 hc         1 BC9       0.036033
     72 H38         -0.4460     1.8820    -0.5750 h1         1 BC9       0.031700
     73 H39         -2.7970     1.9130     1.2430 hc         1 BC9       0.087200
     74 H40         -2.9630     2.9440    -0.2210 hc         1 BC9       0.087200
     75 H42          5.6960    -3.9060    -1.2800 ho         1 BC9       0.444000
     76 H43          0.4670     2.2190     1.6420 ho         1 BC9       0.431000
@<TRIPOS>BOND
     1     1     2 1   
     2     1     4 1   
     3     1     5 1   
     4     1    35 1   
     5     2     3 1   
     6     2    29 1   
     7     2    36 1   
     8     3     4 1   
     9     3    37 1   
    10     3    38 1   
    11     4    39 1   
    12     4    40 1   
    13     5     6 1   
    14     5    28 1   
    15     5    41 1   
    16     6     7 1   
    17     6    42 1   
    18     6    43 1   
    19     7     8 1   
    20     7    44 1   
    21     7    45 1   
    22     8     9 1   
    23     8    46 1   
    24     8    47 1   
    25     9    10 2   
    26     9    48 1   
    27    10    11 1   
    28    10    12 1   
    29    11    34 3   
    30    12    13 1   
    31    12    32 1   
    32    12    49 1   
    33    13    14 1   
    34    13    15 1   
    35    13    50 1   
    36    14    51 1   
    37    14    52 1   
    38    14    53 1   
    39    15    16 1   
    40    15    54 1   
    41    15    55 1   
    42    16    17 1   
    43    16    18 1   
    44    16    56 1   
    45    17    57 1   
    46    17    58 1   
    47    17    59 1   
    48    18    19 1   
    49    18    60 1   
    50    18    61 1   
    51    19    20 1   
    52    19    21 1   
    53    19    62 1   
    54    20    63 1   
    55    20    64 1   
    56    20    65 1   
    57    21    22 1   
    58    21    66 1   
    59    21    67 1   
    60    22    23 1   
    61    22    24 1   
    62    22    68 1   
    63    23    69 1   
    64    23    70 1   
    65    23    71 1   
    66    24    25 1   
    67    24    33 1   
    68    24    72 1   
    69    25    26 1   
    70    25    73 1   
    71    25    74 1   
    72    26    27 2   
    73    26    28 1   
    74    29    30 1   
    75    29    31 1   
    76    32    75 1   
    77    33    76 1   
@<TRIPOS>SUBSTRUCTURE
     1 BC9         1 TEMP              0 ****  ****    0 ROOT
