@<TRIPOS>MOLECULE
BC9
   76    77     1     0     0
SMALL
abcg2


@<TRIPOS>ATOM
      1 C1          -4.1290    -2.1210    -0.1170 cy         1 BC9      -0.091700
      2 C2          -5.3750    -1.4440    -0.7190 cy         1 BC9      -0.175700
      3 C3          -6.0480    -2.8260    -0.7900 cy         1 BC9      -0.069400
      4 C5          -4.6490    -3.4610    -0.6760 cy         1 BC9      -0.108400
      5 C6          -2.7570    -1.6640    -0.5610 c3         1 BC9       0.200300
      6 C7          -1.6380    -2.6010    -0.1270 c3         1 BC9      -0.074400
      7 C8          -0.2630    -2.1690    -0.6300 c3         1 BC9      -0.074400
      8 C9           0.8330    -3.1960    -0.3230 c3         1 BC9      -0.059200
      9 C10          2.1430    -2.7410    -0.8690 c2         1 BC9      -0.124200
     10 C11          3.2670    -2.4810    -0.1920 ce         1 BC9      -0.085900
     11 C12          3.3300    -2.6950     1.2200 cg         1 BC9       0.297700
     12 C13          4.5420    -1.9630    -0.8280 c3         1 BC9       0.228500
     13 C14          4.9500    -0.5820    -0.2940 c3         1 BC9      -0.051700
     14 C15          6.2010    -0.0690    -1.0000 c3         1 BC9      -0.082100
     15 C16          3.7840     0.3920    -0.4430 c3         1 BC9      -0.082400
     16 C17          3.9620     1.8290     0.0820 c3         1 BC9      -0.044700
     17 C18          4.4700     1.8160     1.5200 c3         1 BC9      -0.089100
     18 C19          2.5720     2.4620    -0.0750 c3         1 BC9      -0.084400
     19 C20          2.2940     3.9560     0.0920 c3         1 BC9      -0.042700
     20 C21          2.7090     4.5470     1.4400 c3         1 BC9      -0.082100
     21 C22          0.8290     4.2920    -0.2930 c3         1 BC9      -0.069400
     22 C23         -0.4040     3.6380     0.3960 c3         1 BC9      -0.083700
     23 C24         -0.2100     3.3370     1.8780 c3         1 BC9      -0.079100
     24 C25         -1.0020     2.4630    -0.4060 c3         1 BC9       0.172300
     25 C26         -2.3390     1.9580     0.1470 c3         1 BC9      -0.124400
     26 C27         -2.7330     0.7350    -0.6430 c          1 BC9       0.655100
     27 O28         -3.1410     0.7830    -1.7800 o          1 BC9      -0.522000
     28 O29         -2.4890    -0.3800     0.0240 os         1 BC9      -0.424100
     29 C30         -6.0690    -0.3010     0.0120 c          1 BC9       0.730000
     30 O31         -5.3540     0.4690     0.6870 o          1 BC9      -0.739500
     31 O32         -7.3050    -0.2160    -0.1450 o          1 BC9      -0.739500
     32 O33          5.6010    -2.8560    -0.5790 oh         1 BC9      -0.653000
     33 O34         -0.1870     1.3140    -0.4760 oh         1 BC9      -0.660000
     34 N35          3.4120    -2.8540     2.3600 n1         1 BC9      -0.471000
     35 H1          -4.1820    -2.1210     0.9770 hc         1 BC9       0.072700
     36 H2          -5.1380    -1.1020    -1.7340 hc         1 BC9       0.047700
     37 H3          -6.6570    -3.0250     0.0940 hc         1 BC9       0.039700
     38 H4          -6.6400    -3.0660    -1.6740 hc         1 BC9       0.039700
     39 H5          -4.2230    -3.6770    -1.6590 hc         1 BC9       0.021200
     40 H6          -4.5370    -4.3460    -0.0490 hc         1 BC9       0.021200
     41 H7          -2.7430    -1.5820    -1.6530 h1         1 BC9       0.049700
     42 H8          -1.6330    -2.6940     0.9640 hc         1 BC9       0.044700
     43 H9          -1.8720    -3.5950    -0.5200 hc         1 BC9       0.044700
     44 H10         -0.3100    -2.0160    -1.7130 hc         1 BC9       0.053200
     45 H11          0.0110    -1.2080    -0.1950 hc         1 BC9       0.053200
     46 H12          0.8920    -3.3780     0.7530 hc         1 BC9       0.055200
     47 H13          0.5720    -4.1500    -0.7930 hc         1 BC9       0.055200
     48 H14          2.1730    -2.5650    -1.9410 ha         1 BC9       0.171000
     49 H15          4.3450    -1.8690    -1.9070 h1         1 BC9       0.031700
     50 H16          5.1770    -0.7040     0.7720 hc         1 BC9       0.068700
     51 H17          6.0070     0.1010    -2.0620 hc         1 BC9       0.034367
     52 H18          6.5230     0.8810    -0.5720 hc         1 BC9       0.034367
     53 H19          7.0350    -0.7640    -0.9180 hc         1 BC9       0.034367
     54 H20          3.5030     0.4410    -1.5020 hc         1 BC9       0.043700
     55 H21          2.9120    -0.0200     0.0730 hc         1 BC9       0.043700
     56 H22          4.6830     2.3660    -0.5460 hc         1 BC9       0.040700
     57 H23          5.4070     1.2640     1.6060 hc         1 BC9       0.034367
     58 H24          4.6580     2.8160     1.9040 hc         1 BC9       0.034367
     59 H25          3.7470     1.3330     2.1830 hc         1 BC9       0.034367
     60 H26          2.2630     2.2290    -1.1020 hc         1 BC9       0.044700
     61 H27          1.9060     1.9070     0.5880 hc         1 BC9       0.044700
     62 H28          2.8890     4.4810    -0.6650 hc         1 BC9       0.028700
     63 H29          3.7920     4.6590     1.5000 hc         1 BC9       0.030700
     64 H30          2.2810     5.5430     1.5750 hc         1 BC9       0.030700
     65 H31          2.3970     3.9390     2.2890 hc         1 BC9       0.030700
     66 H32          0.7310     5.3730    -0.1600 hc         1 BC9       0.030200
     67 H33          0.7280     4.1340    -1.3740 hc         1 BC9       0.030200
     68 H34         -1.1880     4.4030     0.3340 hc         1 BC9       0.045700
     69 H35          0.1410     4.2210     2.4070 hc         1 BC9       0.036033
     70 H36         -1.1460     3.0420     2.3530 hc         1 BC9       0.036033
     71 H37          0.5120     2.5390     2.0520 hc         1 BC9       0.036033
     72 H38         -1.1930     2.8450    -1.4200 h1         1 BC9       0.031700
     73 H39         -2.2610     1.7100     1.2050 hc         1 BC9       0.087200
     74 H40         -3.1040     2.7270     0.0360 hc         1 BC9       0.087200
     75 H42          5.4140    -3.6860    -1.0300 ho         1 BC9       0.444000
     76 H43          0.5670     1.4960    -1.0420 ho         1 BC9       0.431000
@<TRIPOS>BOND
     1     1     2 1   
     2     1     4 1   
     3     1     5 1   
     4     1    35 1   
     5     2     3 1   
     6     2    29 1   
     7     2    36 1   
     8     3     4 1   
     9     3    37 1   
    10     3    38 1   
    11     4    39 1   
    12     4    40 1   
    13     5     6 1   
    14     5    28 1   
    15     5    41 1   
    16     6     7 1   
    17     6    42 1   
    18     6    43 1   
    19     7     8 1   
    20     7    44 1   
    21     7    45 1   
    22     8     9 1   
    23     8    46 1   
    24     8    47 1   
    25     9    10 2   
    26     9    48 1   
    27    10    11 1   
    28    10    12 1   
    29    11    34 3   
    30    12    13 1   
    31    12    32 1   
    32    12    49 1   
    33    13    14 1   
    34    13    15 1   
    35    13    50 1   
    36    14    51 1   
    37    14    52 1   
    38    14    53 1   
    39    15    16 1   
    40    15    54 1   
    41    15    55 1   
    42    16    17 1   
    43    16    18 1   
    44    16    56 1   
    45    17    57 1   
    46    17    58 1   
    47    17    59 1   
    48    18    19 1   
    49    18    60 1   
    50    18    61 1   
    51    19    20 1   
    52    19    21 1   
    53    19    62 1   
    54    20    63 1   
    55    20    64 1   
    56    20    65 1   
    57    21    22 1   
    58    21    66 1   
    59    21    67 1   
    60    22    23 1   
    61    22    24 1   
    62    22    68 1   
    63    23    69 1   
    64    23    70 1   
    65    23    71 1   
    66    24    25 1   
    67    24    33 1   
    68    24    72 1   
    69    25    26 1   
    70    25    73 1   
    71    25    74 1   
    72    26    27 2   
    73    26    28 1   
    74    29    30 1   
    75    29    31 1   
    76    32    75 1   
    77    33    76 1   
@<TRIPOS>SUBSTRUCTURE
     1 BC9         1 TEMP              0 ****  ****    0 ROOT
