@<TRIPOS>MOLECULE
BCE
   35    36     1     0     0
SMALL
bcc


@<TRIPOS>ATOM
      1 CAI         -4.6620    -0.8410     0.8900 ca         1 BCE      -0.120500
      2 CAG         -6.0480    -0.9000     0.8860 ca         1 BCE      -0.129000
      3 CAF         -6.7810    -0.1010     0.0180 ca         1 BCE      -0.128000
      4 CAH         -6.1150     0.7570    -0.8460 ca         1 BCE      -0.129000
      5 CAJ         -4.7290     0.8150    -0.8440 ca         1 BCE      -0.120500
      6 CAT         -3.9800     0.0170     0.0250 cp         1 BCE      -0.025000
      7 CAU         -2.5060     0.0810     0.0270 cp         1 BCE      -0.064000
      8 CAN         -1.8330     1.2880    -0.1680 ca         1 BCE      -0.091000
      9 CAL         -0.4530     1.3460    -0.1670 ca         1 BCE      -0.168500
     10 CAM         -1.7300    -1.0590     0.2260 ca         1 BCE      -0.091000
     11 CAK         -0.3440    -1.0190     0.2290 ca         1 BCE      -0.168500
     12 CAS          0.3150     0.1960     0.0300 ca         1 BCE       0.080600
     13 NAO          1.7020     0.3620     0.0440 ns         1 BCE      -0.472100
     14 CAQ          2.6700    -0.5940    -0.0210 c          1 BCE       0.715300
     15 OAC          2.4350    -1.7800    -0.1460 o          1 BCE      -0.566100
     16 CAR          4.0560    -0.0630     0.0870 ce         1 BCE      -0.201900
     17 CAE          4.2380     1.2360     0.6190 cg         1 BCE       0.205500
     18 NAB          4.3350     2.3010     1.0570 n1         1 BCE      -0.379800
     19 CAP          5.1670    -0.7740    -0.2800 c2         1 BCE       0.223900
     20 CAA          6.5570    -0.2630    -0.1370 c3         1 BCE      -0.126900
     21 OAD          5.0300    -1.9710    -0.8010 oh         1 BCE      -0.435100
     22 HAI         -4.1080    -1.4540     1.5890 ha         1 BCE       0.131500
     23 HAG         -6.5580    -1.5670     1.5700 ha         1 BCE       0.129500
     24 HAF         -7.8620    -0.1470     0.0160 ha         1 BCE       0.129000
     25 HAH         -6.6750     1.3790    -1.5330 ha         1 BCE       0.129500
     26 HAJ         -4.2250     1.4740    -1.5400 ha         1 BCE       0.131500
     27 HAN         -2.3910     2.2060    -0.3060 ha         1 BCE       0.133000
     28 HAL          0.0370     2.3020    -0.3160 ha         1 BCE       0.146000
     29 HAM         -2.2100    -2.0200     0.3670 ha         1 BCE       0.133000
     30 HAK          0.2050    -1.9320     0.3860 ha         1 BCE       0.146000
     31 HNAO         2.0000     1.3250     0.0190 hn         1 BCE       0.322500
     32 HAA          6.6100     0.7280     0.3010 hc         1 BCE       0.072700
     33 HAAA         7.1330    -0.9460     0.4910 hc         1 BCE       0.072700
     34 HAAB         7.0400    -0.2310    -1.1160 hc         1 BCE       0.072700
     35 HOAD         5.8910    -2.3490    -1.0280 ho         1 BCE       0.439000
@<TRIPOS>BOND
     1     1     2 ar  
     2     1     6 ar  
     3     1    22 1   
     4     2     3 ar  
     5     2    23 1   
     6     3     4 ar  
     7     3    24 1   
     8     4     5 ar  
     9     4    25 1   
    10     5     6 ar  
    11     5    26 1   
    12     6     7 1   
    13     7     8 ar  
    14     7    10 ar  
    15     8     9 ar  
    16     8    27 1   
    17     9    12 ar  
    18     9    28 1   
    19    10    11 ar  
    20    10    29 1   
    21    11    12 ar  
    22    11    30 1   
    23    12    13 1   
    24    13    14 1   
    25    13    31 1   
    26    14    15 2   
    27    14    16 1   
    28    16    17 1   
    29    16    19 2   
    30    17    18 3   
    31    19    20 1   
    32    19    21 1   
    33    20    32 1   
    34    20    33 1   
    35    20    34 1   
    36    21    35 1   
@<TRIPOS>SUBSTRUCTURE
     1 BCE         1 TEMP              0 ****  ****    0 ROOT
