@<TRIPOS>MOLECULE
BCE
   35    36     1     0     0
SMALL
No Charge or Current Charge


@<TRIPOS>ATOM
      1 CAI         -4.7740    -0.7450     0.9190 ca         1 BCE      -0.102500
      2 CAG         -6.1780    -0.7810     0.8680 ca         1 BCE      -0.111000
      3 CAF         -6.8650    -0.0520    -0.1150 ca         1 BCE      -0.110000
      4 CAH         -6.1470     0.7130    -1.0480 ca         1 BCE      -0.111000
      5 CAJ         -4.7420     0.7480    -0.9960 ca         1 BCE      -0.102500
      6 CAT         -4.0250     0.0200    -0.0120 cp         1 BCE      -0.025000
      7 CAU         -2.5280     0.0580     0.0420 cp         1 BCE      -0.064000
      8 CAN         -1.8120     1.2340    -0.2900 ca         1 BCE      -0.073000
      9 CAL         -0.4080     1.2690    -0.2380 ca         1 BCE      -0.150500
     10 CAM         -1.7780    -1.0790     0.4300 ca         1 BCE      -0.073000
     11 CAK         -0.3730    -1.0450     0.4810 ca         1 BCE      -0.150500
     12 CAS          0.3270     0.1310     0.1400 ca         1 BCE      -0.012000
     13 NAO          1.7440     0.2440     0.1760 ns         1 BCE      -0.146000
     14 CAQ          2.7580    -0.6990     0.3360 c          1 BCE       0.648300
     15 OAC          2.5420    -1.9040     0.4020 o          1 BCE      -0.566100
     16 CAR          4.1490    -0.1300     0.3200 ce         1 BCE      -0.201900
     17 CAE          4.3110     1.1680     0.8980 cg         1 BCE       0.294700
     18 NAB          4.4040     2.2400     1.3470 n1         1 BCE      -0.469000
     19 CAP          5.1940    -0.7370    -0.2980 c2         1 BCE       0.223900
     20 CAA          6.6040    -0.1700    -0.3780 c3         1 BCE      -0.126900
     21 OAD          5.0690    -1.9160    -0.9340 oh         1 BCE      -0.474100
     22 HAI         -4.2630    -1.3060     1.6970 ha         1 BCE       0.113500
     23 HAG         -6.7330    -1.3710     1.5940 ha         1 BCE       0.111500
     24 HAF         -7.9520    -0.0790    -0.1550 ha         1 BCE       0.111000
     25 HAH         -6.6770     1.2760    -1.8130 ha         1 BCE       0.111500
     26 HAJ         -4.2050     1.3360    -1.7360 ha         1 BCE       0.113500
     27 HAN         -2.3490     2.1350    -0.5770 ha         1 BCE       0.115000
     28 HAL          0.1100     2.1910    -0.4950 ha         1 BCE       0.128000
     29 HAM         -2.2890    -2.0040     0.6850 ha         1 BCE       0.115000
     30 HAK          0.1490    -1.9440     0.7950 ha         1 BCE       0.128000
     31 HNAO         2.0780     1.1930     0.0720 hn         1 BCE       0.156000
     32 HAA          6.9870     0.0680     0.6220 hc         1 BCE       0.072700
     33 HAAA         7.3210    -0.8620    -0.8370 hc         1 BCE       0.072700
     34 HAAB         6.6200     0.7540    -0.9680 hc         1 BCE       0.072700
     35 HOAD         5.9440    -2.1530    -1.3060 ho         1 BCE       0.478000
@<TRIPOS>BOND
     1     1     2 ar  
     2     1     6 ar  
     3     1    22 1   
     4     2     3 ar  
     5     2    23 1   
     6     3     4 ar  
     7     3    24 1   
     8     4     5 ar  
     9     4    25 1   
    10     5     6 ar  
    11     5    26 1   
    12     6     7 1   
    13     7     8 ar  
    14     7    10 ar  
    15     8     9 ar  
    16     8    27 1   
    17     9    12 ar  
    18     9    28 1   
    19    10    11 ar  
    20    10    29 1   
    21    11    12 ar  
    22    11    30 1   
    23    12    13 1   
    24    13    14 1   
    25    13    31 1   
    26    14    15 2   
    27    14    16 1   
    28    16    17 1   
    29    16    19 2   
    30    17    18 3   
    31    19    20 1   
    32    19    21 1   
    33    20    32 1   
    34    20    33 1   
    35    20    34 1   
    36    21    35 1   
@<TRIPOS>SUBSTRUCTURE
     1 BCE         1 TEMP              0 ****  ****    0 ROOT
