@<TRIPOS>MOLECULE
BCF
   12    12     1     0     0
SMALL
No Charge or Current Charge


@<TRIPOS>ATOM
      1 F6           1.0790    -2.3890     0.0380 f          1 BCF      -0.128000
      2 C6           0.3950    -1.2200     0.0260 ca         1 BCF       0.179000
      3 C1           1.0940     0.0040     0.0220 ca         1 BCF       0.034000
      4 Cl1          2.8610     0.0200     0.0340 cl         1 BCF      -0.109000
      5 C5          -1.0120    -1.2330     0.0160 ca         1 BCF       0.106000
      6 F5          -1.6800    -2.4120     0.0190 f          1 BCF      -0.129000
      7 C4          -1.7260    -0.0200     0.0030 ca         1 BCF       0.145000
      8 F4          -3.0810    -0.0320    -0.0060 f          1 BCF      -0.127000
      9 C3          -1.0340     1.2040     0.0000 ca         1 BCF       0.106000
     10 F3          -1.7210     2.3720    -0.0120 f          1 BCF      -0.129000
     11 C2           0.3740     1.2160     0.0100 ca         1 BCF       0.179000
     12 F2           1.0370     2.3970     0.0070 f          1 BCF      -0.128000
@<TRIPOS>BOND
     1     1     2 1   
     2     2     3 ar  
     3     2     5 ar  
     4     3     4 1   
     5     3    11 ar  
     6     5     6 1   
     7     5     7 ar  
     8     7     8 1   
     9     7     9 ar  
    10     9    10 1   
    11     9    11 ar  
    12    11    12 1   
@<TRIPOS>SUBSTRUCTURE
     1 BCF         1 TEMP              0 ****  ****    0 ROOT
