@<TRIPOS>MOLECULE
BCF
   12    12     1     0     0
SMALL
abcg2


@<TRIPOS>ATOM
      1 F6           1.0500    -2.3410     0.0370 f          1 BCF      -0.128000
      2 C6           0.3850    -1.1960     0.0250 ca         1 BCF       0.179000
      3 C1           1.0750     0.0040     0.0220 ca         1 BCF       0.034000
      4 CL1          2.7800     0.0190     0.0340 cl         1 BCF      -0.109000
      5 C5          -0.9960    -1.2120     0.0160 ca         1 BCF       0.106000
      6 F5          -1.6520    -2.3650     0.0190 f          1 BCF      -0.129000
      7 C4          -1.6970    -0.0200     0.0040 ca         1 BCF       0.145000
      8 F4          -3.0210    -0.0320    -0.0050 f          1 BCF      -0.127000
      9 C3          -1.0180     1.1840     0.0010 ca         1 BCF       0.106000
     10 F3          -1.6930     2.3250    -0.0120 f          1 BCF      -0.129000
     11 C2           0.3640     1.1930     0.0100 ca         1 BCF       0.179000
     12 F2           1.0090     2.3480     0.0070 f          1 BCF      -0.128000
@<TRIPOS>BOND
     1     1     2 1   
     2     2     3 ar  
     3     2     5 ar  
     4     3     4 1   
     5     3    11 ar  
     6     5     6 1   
     7     5     7 ar  
     8     7     8 1   
     9     7     9 ar  
    10     9    10 1   
    11     9    11 ar  
    12    11    12 1   
@<TRIPOS>SUBSTRUCTURE
     1 BCF         1 TEMP              0 ****  ****    0 ROOT
