@<TRIPOS>MOLECULE
BCG
   39    41     1     0     0
SMALL
No Charge or Current Charge


@<TRIPOS>ATOM
      1 C1          -0.2010    -0.7610     3.0550 c5         1 BCG       0.178500
      2 C2          -0.5020    -0.9520     1.5340 c6         1 BCG      -0.185700
      3 C3           0.6120    -0.3510     0.6470 c6         1 BCG       0.212300
      4 C4           1.0850     1.0200     1.1910 c6         1 BCG      -0.083400
      5 C5           1.3110     0.9810     2.7280 c5         1 BCG       0.165500
      6 C6           2.2000    -0.2010     3.2390 c5         1 BCG      -0.115400
      7 C7           1.1750    -1.3630     3.4980 c5         1 BCG      -0.119400
      8 C9           0.4050     0.0550    -3.1050 ca         1 BCG      -0.134600
      9 C10         -1.0000    -0.0270    -3.2540 ca         1 BCG      -0.053000
     10 C11         -1.5890     0.0900    -4.5260 ca         1 BCG      -0.141000
     11 C12         -0.7880     0.2900    -5.6610 ca         1 BCG      -0.100000
     12 C13          0.6070     0.3730    -5.5240 ca         1 BCG      -0.141000
     13 C14          1.2010     0.2560    -4.2550 ca         1 BCG      -0.053000
     14 C15         -1.9200    -0.5200     1.0950 c          1 BCG       0.741000
     15 N1           0.0090     0.6800     3.3670 n3         1 BCG      -0.657600
     16 O1           0.1730    -0.2610    -0.7230 os         1 BCG      -0.392100
     17 O2           2.2760    -0.0110    -1.5920 o          1 BCG      -0.538000
     18 O3          -2.3250     0.5970     1.3830 o          1 BCG      -0.729500
     19 O4          -2.6920    -1.4220     0.7950 o          1 BCG      -0.729500
     20 H1          -1.0340    -1.1990     3.6260 h1         1 BCG       0.084700
     21 H2          -0.4600    -2.0320     1.3410 hc         1 BCG       0.042700
     22 H3           1.4640    -1.0450     0.6800 h1         1 BCG       0.021700
     23 H41          0.3460     1.7950     0.9500 hc         1 BCG       0.062200
     24 H42          2.0200     1.3170     0.7010 hc         1 BCG       0.062200
     25 H5           1.7100     1.9560     3.0410 h1         1 BCG       0.044700
     26 H61          2.9730    -0.4780     2.5140 hc         1 BCG       0.033200
     27 H62          2.7210     0.0700     4.1640 hc         1 BCG       0.033200
     28 H71          1.4290    -2.2730     2.9430 hc         1 BCG       0.033200
     29 H72          1.1600    -1.6400     4.5580 hc         1 BCG       0.033200
     30 H10         -1.6450    -0.1820    -2.3910 ha         1 BCG       0.150000
     31 H11         -2.6700     0.0260    -4.6300 ha         1 BCG       0.106500
     32 H12         -1.2460     0.3800    -6.6430 ha         1 BCG       0.098000
     33 H13          1.2290     0.5270    -6.4030 ha         1 BCG       0.106500
     34 H14          2.2840     0.3230    -4.1690 ha         1 BCG       0.150000
     35 H161         0.6530     0.5280     5.4140 h1         1 BCG       0.017700
     36 H162         0.0460     2.1260     4.9300 h1         1 BCG       0.017700
     37 H163        -1.0910     0.7860     5.1880 h1         1 BCG       0.017700
     38 C8           1.0620    -0.0680    -1.7480 c          1 BCG       0.605700
     39 C16         -0.0960     1.0450     4.8010 c3         1 BCG       0.153100
@<TRIPOS>BOND
     1     1     2 1   
     2     1     7 1   
     3     1    15 1   
     4     1    20 1   
     5     2     3 1   
     6     2    14 1   
     7     2    21 1   
     8     3     4 1   
     9     3    16 1   
    10     3    22 1   
    11     4     5 1   
    12     4    23 1   
    13     4    24 1   
    14     5     6 1   
    15     5    15 1   
    16     5    25 1   
    17     6     7 1   
    18     6    26 1   
    19     6    27 1   
    20     7    28 1   
    21     7    29 1   
    22     8     9 ar  
    23     8    13 ar  
    24     8    38 1   
    25     9    10 ar  
    26     9    30 1   
    27    10    11 ar  
    28    10    31 1   
    29    11    12 ar  
    30    11    32 1   
    31    12    13 ar  
    32    12    33 1   
    33    13    34 1   
    34    14    18 1   
    35    14    19 1   
    36    15    39 1   
    37    16    38 1   
    38    17    38 2   
    39    35    39 1   
    40    36    39 1   
    41    37    39 1   
@<TRIPOS>SUBSTRUCTURE
     1 BCG         1 TEMP              0 ****  ****    0 ROOT
