@<TRIPOS>MOLECULE
BCG
   39    41     1     0     0
SMALL
abcg2


@<TRIPOS>ATOM
      1 C1          -0.1120    -0.8450     2.9480 c5         1 BCG       0.178500
      2 C2          -0.4790    -0.9520     1.4600 c6         1 BCG      -0.185700
      3 C3           0.6060    -0.2490     0.6540 c6         1 BCG       0.212300
      4 C4           0.9480     1.1280     1.2080 c6         1 BCG      -0.083400
      5 C5           1.1370     1.0340     2.7230 c5         1 BCG       0.165500
      6 C6           2.1800    -0.0440     3.1060 c5         1 BCG      -0.115400
      7 C7           1.3300    -1.3240     3.2480 c5         1 BCG      -0.119400
      8 C9           0.4210     0.0150    -3.0170 ca         1 BCG      -0.134600
      9 C10         -0.9540     0.2150    -3.1440 ca         1 BCG      -0.053000
     10 C11         -1.5190     0.3510    -4.4040 ca         1 BCG      -0.141000
     11 C12         -0.7210     0.2860    -5.5390 ca         1 BCG      -0.100000
     12 C13          0.6480     0.0870    -5.4150 ca         1 BCG      -0.141000
     13 C14          1.2180    -0.0440    -4.1580 ca         1 BCG      -0.053000
     14 C15         -1.9260    -0.4410     1.2670 c          1 BCG       0.741000
     15 N1          -0.1170     0.5700     3.3130 n3         1 BCG      -0.657600
     16 O1           0.1830    -0.1800    -0.7160 os         1 BCG      -0.392100
     17 O2           2.2700    -0.1730    -1.5310 o          1 BCG      -0.538000
     18 O3          -2.1230     0.6210     0.6510 o          1 BCG      -0.729500
     19 O4          -2.8040    -1.1710     1.7780 o          1 BCG      -0.729500
     20 H1          -0.8550    -1.3910     3.5290 h1         1 BCG       0.084700
     21 H2          -0.4650    -2.0160     1.1940 hc         1 BCG       0.042700
     22 H3           1.5070    -0.8690     0.6870 h1         1 BCG       0.021700
     23 H41          0.1400     1.8260     0.9910 hc         1 BCG       0.062200
     24 H42          1.8630     1.5070     0.7460 hc         1 BCG       0.062200
     25 H5           1.3970     2.0200     3.1140 h1         1 BCG       0.044700
     26 H61          2.9690    -0.1380     2.3570 hc         1 BCG       0.033200
     27 H62          2.6680     0.2110     4.0470 hc         1 BCG       0.033200
     28 H71          1.6490    -2.1250     2.5780 hc         1 BCG       0.033200
     29 H72          1.3920    -1.7250     4.2610 hc         1 BCG       0.033200
     30 H10         -1.5820     0.2760    -2.2650 ha         1 BCG       0.150000
     31 H11         -2.5850     0.5070    -4.4990 ha         1 BCG       0.106500
     32 H12         -1.1650     0.3920    -6.5200 ha         1 BCG       0.098000
     33 H13          1.2730     0.0350    -6.2960 ha         1 BCG       0.106500
     34 H14          2.2850    -0.1940    -4.0630 ha         1 BCG       0.150000
     35 H161         0.6230     0.3200     5.3260 h1         1 BCG       0.017700
     36 H162        -0.1620     1.8560     4.9540 h1         1 BCG       0.017700
     37 H163        -1.1300     0.3970     5.1270 h1         1 BCG       0.017700
     38 C8           1.0700    -0.1220    -1.6850 c          1 BCG       0.605700
     39 C16         -0.1850     0.7860     4.7440 c3         1 BCG       0.153100
@<TRIPOS>BOND
     1     1     2 1   
     2     1     7 1   
     3     1    15 1   
     4     1    20 1   
     5     2     3 1   
     6     2    14 1   
     7     2    21 1   
     8     3     4 1   
     9     3    16 1   
    10     3    22 1   
    11     4     5 1   
    12     4    23 1   
    13     4    24 1   
    14     5     6 1   
    15     5    15 1   
    16     5    25 1   
    17     6     7 1   
    18     6    26 1   
    19     6    27 1   
    20     7    28 1   
    21     7    29 1   
    22     8     9 ar  
    23     8    13 ar  
    24     8    38 1   
    25     9    10 ar  
    26     9    30 1   
    27    10    11 ar  
    28    10    31 1   
    29    11    12 ar  
    30    11    32 1   
    31    12    13 ar  
    32    12    33 1   
    33    13    34 1   
    34    14    18 1   
    35    14    19 1   
    36    15    39 1   
    37    16    38 1   
    38    17    38 2   
    39    35    39 1   
    40    36    39 1   
    41    37    39 1   
@<TRIPOS>SUBSTRUCTURE
     1 BCG         1 TEMP              0 ****  ****    0 ROOT
