@<TRIPOS>MOLECULE
BCH
   32    31     1     0     0
SMALL
No Charge or Current Charge


@<TRIPOS>ATOM
      1 C21          5.6160    -0.3020     0.4910 c3         1 BCH      -0.094100
      2 C20          4.1710     0.2340     0.4610 c3         1 BCH      -0.065400
      3 C19          3.4360    -0.0870    -0.8630 c3         1 BCH      -0.165400
      4 C18          2.0040     0.4510    -0.8540 c          1 BCH       0.637700
      5 O12          1.7260     1.6020    -1.1580 o          1 BCH      -0.488100
      6 S17          0.7660    -0.7510    -0.2720 ss         1 BCH      -0.378600
      7 C16         -0.7650     0.2860    -0.3490 c3         1 BCH       0.024600
      8 C15         -1.9860    -0.5350     0.1110 c3         1 BCH       0.111600
      9 N14         -3.3580     0.1660     0.1170 n4         1 BCH      -0.498000
     10 C13         -3.7300     0.6310    -1.3010 c3         1 BCH       0.074567
     11 C22         -4.4200    -0.8300     0.6050 c3         1 BCH       0.074567
     12 C11         -3.3400     1.3760     1.0650 c3         1 BCH       0.074567
     13 H211         6.0970    -0.0510     1.4440 hc         1 BCH       0.043033
     14 H212         5.6290    -1.3930     0.3780 hc         1 BCH       0.043033
     15 H213         6.2100     0.1370    -0.3190 hc         1 BCH       0.043033
     16 H201         3.6140    -0.1960     1.3030 hc         1 BCH       0.056700
     17 H202         4.1900     1.3210     0.6140 hc         1 BCH       0.056700
     18 H191         3.9820     0.3660    -1.6970 hc         1 BCH       0.083700
     19 H192         3.4040    -1.1780    -0.9690 hc         1 BCH       0.083700
     20 H161        -0.6390     1.1630     0.3000 h1         1 BCH       0.092700
     21 H162        -0.9140     0.6330    -1.3790 h1         1 BCH       0.092700
     22 H151        -2.0680    -1.4130    -0.5330 hx         1 BCH       0.105700
     23 H152        -1.7950    -0.8900     1.1270 hx         1 BCH       0.105700
     24 H131        -3.7360    -0.2300    -1.9740 hx         1 BCH       0.098589
     25 H132        -4.7220     1.0860    -1.2820 hx         1 BCH       0.098589
     26 H133        -3.0000     1.3640    -1.6480 hx         1 BCH       0.098589
     27 H221        -4.1690    -1.1600     1.6150 hx         1 BCH       0.098589
     28 H222        -5.3960    -0.3420     0.6120 hx         1 BCH       0.098589
     29 H223        -4.4460    -1.6900    -0.0670 hx         1 BCH       0.098589
     30 H111        -2.6120     2.1070     0.7100 hx         1 BCH       0.098589
     31 H112        -4.3320     1.8320     1.0850 hx         1 BCH       0.098589
     32 H113        -3.0700     1.0440     2.0700 hx         1 BCH       0.098589
@<TRIPOS>BOND
     1     1     2 1   
     2     1    13 1   
     3     1    14 1   
     4     1    15 1   
     5     2     3 1   
     6     2    16 1   
     7     2    17 1   
     8     3     4 1   
     9     3    18 1   
    10     3    19 1   
    11     4     5 2   
    12     4     6 1   
    13     6     7 1   
    14     7     8 1   
    15     7    20 1   
    16     7    21 1   
    17     8     9 1   
    18     8    22 1   
    19     8    23 1   
    20     9    10 1   
    21     9    11 1   
    22     9    12 1   
    23    10    24 1   
    24    10    25 1   
    25    10    26 1   
    26    11    27 1   
    27    11    28 1   
    28    11    29 1   
    29    12    30 1   
    30    12    31 1   
    31    12    32 1   
@<TRIPOS>SUBSTRUCTURE
     1 BCH         1 TEMP              0 ****  ****    0 ROOT
