@<TRIPOS>MOLECULE
BCH
   32    31     1     0     0
SMALL
abcg2


@<TRIPOS>ATOM
      1 C21          5.7640    -0.1750    -0.0520 c3         1 BCH      -0.094100
      2 C20          4.4450     0.5850    -0.0290 c3         1 BCH      -0.065400
      3 C19          3.2630    -0.3740    -0.0330 c3         1 BCH      -0.165400
      4 C18          1.9200     0.3030    -0.0170 c          1 BCH       0.637700
      5 O12          1.7360     1.4900     0.0030 o          1 BCH      -0.488100
      6 S17          0.5730    -0.8640    -0.0320 ss         1 BCH      -0.378600
      7 C16         -0.8440     0.2710    -0.0130 c3         1 BCH       0.024600
      8 C15         -2.0870    -0.6010    -0.0090 c3         1 BCH       0.111600
      9 N14         -3.3790     0.1680    -0.0050 n4         1 BCH      -0.498000
     10 C13         -3.5020     1.0190    -1.2220 c3         1 BCH       0.074567
     11 C22         -4.4910    -0.8270    -0.0040 c3         1 BCH       0.074567
     12 C11         -3.4960     1.0140     1.2150 c3         1 BCH       0.074567
     13 H211         6.6120     0.5090    -0.0450 hc         1 BCH       0.043033
     14 H212         5.8590    -0.8300     0.8160 hc         1 BCH       0.043033
     15 H213         5.8470    -0.7970    -0.9460 hc         1 BCH       0.043033
     16 H201         4.4020     1.2210     0.8580 hc         1 BCH       0.056700
     17 H202         4.3860     1.2480    -0.8930 hc         1 BCH       0.056700
     18 H191         3.3010    -1.0270    -0.9110 hc         1 BCH       0.083700
     19 H192         3.3110    -1.0450     0.8310 hc         1 BCH       0.083700
     20 H161        -0.7790     0.8930     0.8770 h1         1 BCH       0.092700
     21 H162        -0.7910     0.9040    -0.8970 h1         1 BCH       0.092700
     22 H151        -2.1130    -1.2380    -0.8930 hx         1 BCH       0.105700
     23 H152        -2.1070    -1.2390     0.8740 hx         1 BCH       0.105700
     24 H131        -3.3680     0.3990    -2.1040 hx         1 BCH       0.098589
     25 H132        -4.4920     1.4650    -1.2350 hx         1 BCH       0.098589
     26 H133        -2.7580     1.8080    -1.2040 hx         1 BCH       0.098589
     27 H221        -4.4110    -1.4500     0.8820 hx         1 BCH       0.098589
     28 H222        -5.4380    -0.2950     0.0030 hx         1 BCH       0.098589
     29 H223        -4.4200    -1.4410    -0.8970 hx         1 BCH       0.098589
     30 H111        -2.7480     1.8010     1.1990 hx         1 BCH       0.098589
     31 H112        -4.4840     1.4650     1.2330 hx         1 BCH       0.098589
     32 H113        -3.3630     0.3900     2.0950 hx         1 BCH       0.098589
@<TRIPOS>BOND
     1     1     2 1   
     2     1    13 1   
     3     1    14 1   
     4     1    15 1   
     5     2     3 1   
     6     2    16 1   
     7     2    17 1   
     8     3     4 1   
     9     3    18 1   
    10     3    19 1   
    11     4     5 2   
    12     4     6 1   
    13     6     7 1   
    14     7     8 1   
    15     7    20 1   
    16     7    21 1   
    17     8     9 1   
    18     8    22 1   
    19     8    23 1   
    20     9    10 1   
    21     9    11 1   
    22     9    12 1   
    23    10    24 1   
    24    10    25 1   
    25    10    26 1   
    26    11    27 1   
    27    11    28 1   
    28    11    29 1   
    29    12    30 1   
    30    12    31 1   
    31    12    32 1   
@<TRIPOS>SUBSTRUCTURE
     1 BCH         1 TEMP              0 ****  ****    0 ROOT
