@<TRIPOS>MOLECULE
BCJ
   99   104     1     0     0
SMALL
bcc


@<TRIPOS>ATOM
      1 N1          -1.2790    -0.8750     1.4610 nc         1 BCJ      -0.510800
      2 C2          -1.8770    -2.0170     1.1470 cd         1 BCJ       0.386800
      3 C3          -1.0410    -3.1090     1.4680 cd         1 BCJ      -0.277600
      4 C4           0.0870    -2.5360     2.0050 cc         1 BCJ      -0.087600
      5 N5          -0.1060    -1.2020     1.9800 na         1 BCJ       0.143400
      6 C11          1.2770    -3.2690     2.5140 c6         1 BCJ      -0.043100
      7 C10          1.0440    -7.5350     0.4860 c3         1 BCJ      -0.238300
      8 C12          0.8850    -4.7400     2.6550 c6         1 BCJ       0.223800
      9 C14         -1.1760    -4.5910     1.3220 c6         1 BCJ       0.304100
     10 C20         -3.2110    -2.0030     0.5490 ca         1 BCJ      -0.064500
     11 C22          0.8230    -0.1740     2.3850 c3         1 BCJ       0.008300
     12 C24          1.9220     0.0590     1.3450 c3         1 BCJ       0.133100
     13 C28          2.8090     1.2050     1.8220 c3         1 BCJ       0.135800
     14 C31         -4.0070    -3.1450     0.5060 ca         1 BCJ      -0.131000
     15 C32         -5.2620    -3.0980    -0.0750 ca         1 BCJ      -0.073000
     16 C33         -5.7620    -1.9200    -0.6100 ca         1 BCJ      -0.185300
     17 C34         -4.9750    -0.7560    -0.5680 ca         1 BCJ       0.080900
     18 C35         -3.7110    -0.8210     0.0020 ca         1 BCJ      -0.122000
     19 C42          4.9730     0.4620     1.0700 c6         1 BCJ       0.169300
     20 C43          6.0920     0.6940     0.0660 c6         1 BCJ      -0.091900
     21 C44          6.6870     2.0810     0.2780 c6         1 BCJ       0.132700
     22 C45          5.5860     3.1340     0.2060 c6         1 BCJ      -0.091900
     23 C46          4.4780     2.7980     1.1920 c6         1 BCJ       0.169300
     24 C53         -7.1430    -1.8950    -1.1880 c3         1 BCJ       0.723200
     25 C63         -4.6490     2.0220    -0.3760 c3         1 BCJ      -0.006300
     26 C65         -5.3260     3.3610    -0.6510 c3         1 BCJ       0.177800
     27 C69         -5.5440     5.5950     0.1860 c6         1 BCJ       0.168800
     28 C70         -4.8990     6.6870     1.0250 c6         1 BCJ      -0.072900
     29 C71         -3.5570     7.1230     0.4450 c6         1 BCJ      -0.063700
     30 C72         -2.6880     5.8870     0.2390 c6         1 BCJ      -0.072900
     31 C73         -3.4080     4.8250    -0.5750 c6         1 BCJ       0.168800
     32 C80         -2.8650     8.1580     1.3210 c3         1 BCJ      -0.085100
     33 C84          9.0670     2.8610    -0.0360 c5         1 BCJ       0.100000
     34 C85         10.0400     2.7720    -1.2060 c5         1 BCJ       0.135100
     35 C86          9.1170     2.9770    -2.4010 c5         1 BCJ      -0.213400
     36 C87          7.7800     2.4400    -1.9340 c          1 BCJ       0.712500
     37 F58         -7.1570    -1.3990    -2.4360 f          1 BCJ      -0.231633
     38 F60         -7.6890    -3.1120    -1.2540 f          1 BCJ      -0.231633
     39 F62         -7.9780    -1.1380    -0.4640 f          1 BCJ      -0.231633
     40 N13          0.1290    -5.2210     1.5010 n3         1 BCJ      -0.775500
     41 N32          3.9350     1.4710     0.9510 n3         1 BCJ      -0.701600
     42 N70         -4.6660     4.4440     0.0480 n3         1 BCJ      -0.722600
     43 N85          7.8160     2.3740    -0.5890 n          1 BCJ      -0.476800
     44 O10          2.3360    -5.2750     0.2360 o          1 BCJ      -0.608300
     45 O14          0.1760    -5.5560    -1.0040 o          1 BCJ      -0.608300
     46 O28          1.3910     0.2660     0.0640 oh         1 BCJ      -0.554800
     47 O98         10.6100     1.4820    -1.1950 oh         1 BCJ      -0.586800
     48 S64         -5.5870     0.7450    -1.2640 ss         1 BCJ      -0.232000
     49 S98          0.9710    -5.7860     0.1940 s6         1 BCJ       1.241900
     50 H1           2.1220    -3.1690     1.8290 hc         1 BCJ       0.073700
     51 H2           1.6010    -2.8860     3.4850 hc         1 BCJ       0.073700
     52 H3           0.0320    -7.9300     0.5160 h1         1 BCJ       0.102033
     53 H4           1.6040    -7.9930    -0.3270 h1         1 BCJ       0.102033
     54 H5           1.5460    -7.7230     1.4330 h1         1 BCJ       0.102033
     55 H6           1.7620    -5.3620     2.8250 h1         1 BCJ       0.061700
     56 H7           0.2380    -4.8670     3.5250 h1         1 BCJ       0.061700
     57 H8          -1.8500    -5.0060     2.0780 h1         1 BCJ       0.072700
     58 H9          -1.5870    -4.8670     0.3530 h1         1 BCJ       0.072700
     59 H10          0.2420     0.7350     2.5450 h1         1 BCJ       0.070200
     60 H11          1.2650    -0.4520     3.3430 h1         1 BCJ       0.070200
     61 H12          2.5140    -0.8580     1.2680 h1         1 BCJ       0.083700
     62 H13          2.1940     2.1110     1.8690 h1         1 BCJ       0.031700
     63 H14          3.1310     1.0000     2.8580 h1         1 BCJ       0.031700
     64 H15         -3.6760    -4.0770     0.9420 ha         1 BCJ       0.137000
     65 H16         -5.8560    -4.0000    -0.0900 ha         1 BCJ       0.148000
     66 H17         -3.0820     0.0570     0.0190 ha         1 BCJ       0.155000
     67 H18          4.5470    -0.5270     0.8960 h1         1 BCJ       0.029200
     68 H19          5.3970     0.4480     2.0910 h1         1 BCJ       0.029200
     69 H20          6.8620    -0.0700     0.2000 hc         1 BCJ       0.066950
     70 H21          5.7010     0.5960    -0.9470 hc         1 BCJ       0.066950
     71 H22          7.0920     2.1010     1.2960 h1         1 BCJ       0.039700
     72 H23          5.9890     4.1220     0.4440 hc         1 BCJ       0.066950
     73 H24          5.1760     3.1780    -0.8040 hc         1 BCJ       0.066950
     74 H25          4.8670     2.8950     2.2220 h1         1 BCJ       0.029200
     75 H26          3.6720     3.5290     1.0940 h1         1 BCJ       0.029200
     76 H27         -3.6150     2.0210    -0.7160 h1         1 BCJ       0.073700
     77 H28         -4.6680     1.8070     0.6940 h1         1 BCJ       0.073700
     78 H29         -5.3790     3.5400    -1.7380 h1         1 BCJ       0.045200
     79 H30         -6.3570     3.3010    -0.2940 h1         1 BCJ       0.045200
     80 H32         -5.8210     6.0090    -0.7990 h1         1 BCJ       0.031200
     81 H33         -5.5830     7.5370     1.0900 hc         1 BCJ       0.045700
     82 H34         -4.7510     6.3180     2.0460 hc         1 BCJ       0.045700
     83 H35         -3.7460     7.5710    -0.5400 hc         1 BCJ       0.043700
     84 H36         -1.7560     6.1550    -0.2650 hc         1 BCJ       0.045700
     85 H37         -2.4130     5.4710     1.2150 hc         1 BCJ       0.045700
     86 H38         -3.5730     5.1990    -1.6020 h1         1 BCJ       0.031200
     87 H39         -2.7650     3.9470    -0.6620 h1         1 BCJ       0.031200
     88 H40         -1.9150     8.4710     0.8840 hc         1 BCJ       0.032700
     89 H41         -3.4820     9.0480     1.4540 hc         1 BCJ       0.032700
     90 H42         -2.6550     7.7470     2.3110 hc         1 BCJ       0.032700
     91 H43          9.3880     2.2530     0.8110 h1         1 BCJ       0.055200
     92 H44          8.9710     3.8950     0.3120 h1         1 BCJ       0.055200
     93 H45         10.8070     3.5480    -1.1380 h1         1 BCJ       0.048700
     94 H46          8.9950     4.0430    -2.6170 hc         1 BCJ       0.080200
     95 H47          9.4570     2.4960    -3.3190 hc         1 BCJ       0.080200
     96 H50          0.9020     1.0960     0.0580 ho         1 BCJ       0.405000
     97 H51         11.1630     1.3920    -1.9770 ho         1 BCJ       0.409000
     98 O96          6.8330     2.1530    -2.6510 o          1 BCJ      -0.618500
     99 H31         -6.4720     5.2690     0.6610 h1         1 BCJ       0.031200
@<TRIPOS>BOND
     1     1     2 2   
     2     1     5 1   
     3     2     3 1   
     4     2    10 1   
     5     3     4 2   
     6     3     9 1   
     7     4     5 1   
     8     4     6 1   
     9     5    11 1   
    10     6     8 1   
    11     6    50 1   
    12     6    51 1   
    13     7    49 1   
    14     7    52 1   
    15     7    53 1   
    16     7    54 1   
    17     8    40 1   
    18     8    55 1   
    19     8    56 1   
    20     9    40 1   
    21     9    57 1   
    22     9    58 1   
    23    10    14 ar  
    24    10    18 ar  
    25    11    12 1   
    26    11    59 1   
    27    11    60 1   
    28    12    13 1   
    29    12    46 1   
    30    12    61 1   
    31    13    41 1   
    32    13    62 1   
    33    13    63 1   
    34    14    15 ar  
    35    14    64 1   
    36    15    16 ar  
    37    15    65 1   
    38    16    17 ar  
    39    16    24 1   
    40    17    18 ar  
    41    17    48 1   
    42    18    66 1   
    43    19    20 1   
    44    19    41 1   
    45    19    67 1   
    46    19    68 1   
    47    20    21 1   
    48    20    69 1   
    49    20    70 1   
    50    21    22 1   
    51    21    43 1   
    52    21    71 1   
    53    22    23 1   
    54    22    72 1   
    55    22    73 1   
    56    23    41 1   
    57    23    74 1   
    58    23    75 1   
    59    24    37 1   
    60    24    38 1   
    61    24    39 1   
    62    25    26 1   
    63    25    48 1   
    64    25    76 1   
    65    25    77 1   
    66    26    42 1   
    67    26    78 1   
    68    26    79 1   
    69    27    28 1   
    70    27    42 1   
    71    27    80 1   
    72    27    99 1   
    73    28    29 1   
    74    28    81 1   
    75    28    82 1   
    76    29    30 1   
    77    29    32 1   
    78    29    83 1   
    79    30    31 1   
    80    30    84 1   
    81    30    85 1   
    82    31    42 1   
    83    31    86 1   
    84    31    87 1   
    85    32    88 1   
    86    32    89 1   
    87    32    90 1   
    88    33    34 1   
    89    33    43 1   
    90    33    91 1   
    91    33    92 1   
    92    34    35 1   
    93    34    47 1   
    94    34    93 1   
    95    35    36 1   
    96    35    94 1   
    97    35    95 1   
    98    36    43 1   
    99    36    98 2   
   100    40    49 1   
   101    44    49 2   
   102    45    49 2   
   103    46    96 1   
   104    47    97 1   
@<TRIPOS>SUBSTRUCTURE
     1 BCJ         1 TEMP              0 ****  ****    0 ROOT
