@<TRIPOS>MOLECULE
BCJ
   99   104     1     0     0
SMALL
No Charge or Current Charge


@<TRIPOS>ATOM
      1 N1          -1.3150    -0.9960     1.9430 nc         1 BCJ      -0.510800
      2 C2          -1.9150    -2.1100     1.5440 cd         1 BCJ       0.321500
      3 C3          -1.0920    -3.2440     1.7380 cd         1 BCJ      -0.212300
      4 C4           0.0640    -2.8160     2.3060 cc         1 BCJ      -0.138300
      5 N5          -0.0880    -1.4380     2.4050 na         1 BCJ       0.164800
      6 C11          1.2330    -3.7110     2.6350 c6         1 BCJ      -0.043100
      7 C10          2.0480    -6.5090    -0.1320 c3         1 BCJ      -0.349100
      8 C12          0.7990    -5.1980     2.4720 c6         1 BCJ       0.223800
      9 C14         -1.3620    -4.6900     1.3810 c6         1 BCJ       0.304100
     10 C20         -3.2620    -2.0750     0.9380 ca         1 BCJ      -0.064500
     11 C22          0.8930    -0.4840     2.9480 c3         1 BCJ       0.037600
     12 C24          2.0720    -0.1900     1.9910 c3         1 BCJ       0.156300
     13 C28          3.2240     0.5820     2.6830 c3         1 BCJ       0.135800
     14 C31         -4.2110    -3.0770     1.2150 ca         1 BCJ      -0.113000
     15 C32         -5.4990    -3.0180     0.6600 ca         1 BCJ      -0.055000
     16 C33         -5.8850    -1.9410    -0.1720 ca         1 BCJ      -0.185300
     17 C34         -4.9450    -0.9070    -0.4190 ca         1 BCJ      -0.046000
     18 C35         -3.6530    -0.9840     0.1370 ca         1 BCJ      -0.104000
     19 C42          4.9570     0.2450     0.9270 c6         1 BCJ       0.169300
     20 C43          5.8270     0.9470    -0.1390 c6         1 BCJ      -0.091900
     21 C44          6.7360     2.0070     0.5190 c6         1 BCJ       0.132700
     22 C45          5.9200     2.9890     1.3890 c6         1 BCJ      -0.091900
     23 C46          5.0530     2.2120     2.4030 c6         1 BCJ       0.169300
     24 C53         -7.3060    -1.8980    -0.7680 c3         1 BCJ       0.359300
     25 C63         -4.6560     1.9540    -0.5410 c3         1 BCJ       0.041600
     26 C65         -5.0900     3.2760    -1.2100 c3         1 BCJ       0.177800
     27 C69         -5.3160     5.7240    -1.0620 c6         1 BCJ       0.168800
     28 C70         -4.9900     6.9930    -0.2370 c6         1 BCJ      -0.072900
     29 C71         -3.4600     7.2050    -0.1220 c6         1 BCJ      -0.063700
     30 C72         -2.8040     5.9180     0.4380 c6         1 BCJ      -0.072900
     31 C73         -3.1920     4.6770    -0.4020 c6         1 BCJ       0.168800
     32 C80         -3.1120     8.4510     0.7350 c3         1 BCJ      -0.085100
     33 C84          9.0220     2.1740    -0.6380 c5         1 BCJ       0.100000
     34 C85          9.3630     2.6840    -2.0840 c5         1 BCJ       0.158300
     35 C86          8.5120     3.9720    -2.1440 c5         1 BCJ      -0.213400
     36 C87          7.2290     3.5780    -1.4260 c          1 BCJ       0.570000
     37 F58         -7.2860    -1.8720    -2.1210 f          1 BCJ      -0.110333
     38 F60         -8.0570    -2.9690    -0.4230 f          1 BCJ      -0.110333
     39 F62         -7.9930    -0.8070    -0.3560 f          1 BCJ      -0.110333
     40 N13         -0.0760    -5.4310     1.2810 n3         1 BCJ      -0.775500
     41 N32          4.1640     1.2290     1.7240 n3         1 BCJ      -0.701600
     42 N70         -4.6730     4.5090    -0.4890 n3         1 BCJ      -0.722600
     43 N85          7.6430     2.6750    -0.4440 n          1 BCJ      -0.409800
     44 O10          1.1410    -4.0400    -0.5320 o          1 BCJ      -0.537500
     45 O14         -0.2950    -6.0380    -1.1880 o          1 BCJ      -0.537500
     46 O28          1.6530     0.6110     0.8800 oh         1 BCJ      -0.617000
     47 O98          8.9600     1.7600    -3.0960 oh         1 BCJ      -0.649000
     48 S64         -5.3630     0.5060    -1.4480 ss         1 BCJ      -0.153000
     49 S98          0.6570    -5.3990    -0.2750 s6         1 BCJ       1.211100
     50 H1           2.0790    -3.5000     1.9690 hc         1 BCJ       0.073700
     51 H2           1.5930    -3.5410     3.6580 hc         1 BCJ       0.073700
     52 H3           1.6720    -7.4580     0.2630 h1         1 BCJ       0.102033
     53 H4           2.4660    -6.6350    -1.1360 h1         1 BCJ       0.102033
     54 H5           2.7800    -6.0520     0.5400 h1         1 BCJ       0.102033
     55 H6           1.6870    -5.8450     2.4630 h1         1 BCJ       0.061700
     56 H7           0.2390    -5.4780     3.3770 h1         1 BCJ       0.061700
     57 H8          -1.9790    -5.1370     2.1740 h1         1 BCJ       0.072700
     58 H9          -1.9470    -4.7600     0.4510 h1         1 BCJ       0.072700
     59 H10          0.3820     0.4530     3.2000 h1         1 BCJ       0.070200
     60 H11          1.2860    -0.9070     3.8800 h1         1 BCJ       0.070200
     61 H12          2.4780    -1.1450     1.6320 h1         1 BCJ       0.083700
     62 H13          2.7710     1.3560     3.3180 h1         1 BCJ       0.031700
     63 H14          3.7660    -0.1010     3.3510 h1         1 BCJ       0.031700
     64 H15         -3.9620    -3.9030     1.8750 ha         1 BCJ       0.119000
     65 H16         -6.1960    -3.8190     0.8950 ha         1 BCJ       0.130000
     66 H17         -2.9290    -0.2020    -0.0730 ha         1 BCJ       0.137000
     67 H18          4.2960    -0.4670     0.4130 h1         1 BCJ       0.029200
     68 H19          5.6080    -0.3420     1.5920 h1         1 BCJ       0.029200
     69 H20          6.4360     0.2050    -0.6710 hc         1 BCJ       0.066950
     70 H21          5.1740     1.4160    -0.8870 hc         1 BCJ       0.066950
     71 H22          7.3840     1.4580     1.2180 h1         1 BCJ       0.039700
     72 H23          6.5950     3.6710     1.9220 hc         1 BCJ       0.066950
     73 H24          5.2670     3.6100     0.7630 hc         1 BCJ       0.066950
     74 H25          5.7090     1.6970     3.1210 h1         1 BCJ       0.029200
     75 H26          4.4530     2.9350     2.9750 h1         1 BCJ       0.029200
     76 H27         -3.5640     1.8770    -0.5400 h1         1 BCJ       0.073700
     77 H28         -5.0150     1.9330     0.4950 h1         1 BCJ       0.073700
     78 H29         -4.7000     3.2920    -2.2370 h1         1 BCJ       0.045200
     79 H30         -6.1860     3.2570    -1.2860 h1         1 BCJ       0.045200
     80 H32         -4.9830     5.8760    -2.1000 h1         1 BCJ       0.031200
     81 H33         -5.4580     7.8670    -0.7080 hc         1 BCJ       0.045700
     82 H34         -5.4330     6.8990     0.7640 hc         1 BCJ       0.045700
     83 H35         -3.0550     7.3960    -1.1260 hc         1 BCJ       0.043700
     84 H36         -1.7100     6.0250     0.4490 hc         1 BCJ       0.045700
     85 H37         -3.1130     5.7620     1.4810 hc         1 BCJ       0.045700
     86 H38         -2.7620     4.7770    -1.4100 h1         1 BCJ       0.031200
     87 H39         -2.7260     3.7970     0.0630 h1         1 BCJ       0.031200
     88 H40         -2.0280     8.6070     0.7840 hc         1 BCJ       0.032700
     89 H41         -3.5570     9.3590     0.3110 hc         1 BCJ       0.032700
     90 H42         -3.4810     8.3450     1.7630 hc         1 BCJ       0.032700
     91 H43          9.0820     1.0800    -0.5630 h1         1 BCJ       0.055200
     92 H44          9.6990     2.6100     0.1080 h1         1 BCJ       0.055200
     93 H45         10.4360     2.9000    -2.1820 h1         1 BCJ       0.048700
     94 H46          9.0160     4.7290    -1.5340 hc         1 BCJ       0.080200
     95 H47          8.3170     4.3730    -3.1440 hc         1 BCJ       0.080200
     96 H50          2.4460     1.1770     0.7160 ho         1 BCJ       0.444000
     97 H51          9.2660     2.1260    -3.9550 ho         1 BCJ       0.448000
     98 O96          6.0710     3.8140    -1.7410 o          1 BCJ      -0.543000
     99 H31         -6.4090     5.5990    -1.0900 h1         1 BCJ       0.031200
@<TRIPOS>BOND
     1     1     2 2   
     2     1     5 1   
     3     2     3 1   
     4     2    10 1   
     5     3     4 2   
     6     3     9 1   
     7     4     5 1   
     8     4     6 1   
     9     5    11 1   
    10     6     8 1   
    11     6    50 1   
    12     6    51 1   
    13     7    49 1   
    14     7    52 1   
    15     7    53 1   
    16     7    54 1   
    17     8    40 1   
    18     8    55 1   
    19     8    56 1   
    20     9    40 1   
    21     9    57 1   
    22     9    58 1   
    23    10    14 ar  
    24    10    18 ar  
    25    11    12 1   
    26    11    59 1   
    27    11    60 1   
    28    12    13 1   
    29    12    46 1   
    30    12    61 1   
    31    13    41 1   
    32    13    62 1   
    33    13    63 1   
    34    14    15 ar  
    35    14    64 1   
    36    15    16 ar  
    37    15    65 1   
    38    16    17 ar  
    39    16    24 1   
    40    17    18 ar  
    41    17    48 1   
    42    18    66 1   
    43    19    20 1   
    44    19    41 1   
    45    19    67 1   
    46    19    68 1   
    47    20    21 1   
    48    20    69 1   
    49    20    70 1   
    50    21    22 1   
    51    21    43 1   
    52    21    71 1   
    53    22    23 1   
    54    22    72 1   
    55    22    73 1   
    56    23    41 1   
    57    23    74 1   
    58    23    75 1   
    59    24    37 1   
    60    24    38 1   
    61    24    39 1   
    62    25    26 1   
    63    25    48 1   
    64    25    76 1   
    65    25    77 1   
    66    26    42 1   
    67    26    78 1   
    68    26    79 1   
    69    27    28 1   
    70    27    42 1   
    71    27    80 1   
    72    27    99 1   
    73    28    29 1   
    74    28    81 1   
    75    28    82 1   
    76    29    30 1   
    77    29    32 1   
    78    29    83 1   
    79    30    31 1   
    80    30    84 1   
    81    30    85 1   
    82    31    42 1   
    83    31    86 1   
    84    31    87 1   
    85    32    88 1   
    86    32    89 1   
    87    32    90 1   
    88    33    34 1   
    89    33    43 1   
    90    33    91 1   
    91    33    92 1   
    92    34    35 1   
    93    34    47 1   
    94    34    93 1   
    95    35    36 1   
    96    35    94 1   
    97    35    95 1   
    98    36    43 1   
    99    36    98 2   
   100    40    49 1   
   101    44    49 2   
   102    45    49 2   
   103    46    96 1   
   104    47    97 1   
@<TRIPOS>SUBSTRUCTURE
     1 BCJ         1 TEMP              0 ****  ****    0 ROOT
