@<TRIPOS>MOLECULE
BCK
   26    27     1     0     0
SMALL
bcc


@<TRIPOS>ATOM
      1 O13         -2.2600    -2.1870    -1.3740 oh         1 BCK      -0.592800
      2 C12         -1.6390    -1.9580    -0.1230 c3         1 BCK       0.223700
      3 C3          -1.5820    -0.4910     0.1180 cc         1 BCK      -0.262600
      4 C4          -2.6670     0.3900     0.2600 cc         1 BCK       0.329200
      5 N5          -2.2660     1.6390     0.3800 nd         1 BCK      -0.524800
      6 N1          -0.9390     1.5970     0.3140 na         1 BCK       0.117400
      7 C14         -0.1820     2.8220     0.4210 c3         1 BCK       0.041600
      8 C2          -0.4730     0.3370     0.1460 cd         1 BCK      -0.031300
      9 C6           0.9520     0.0070     0.0430 ca         1 BCK      -0.029000
     10 C11          1.7580     0.5980    -0.9310 ca         1 BCK      -0.109500
     11 C10          3.1010     0.2660    -1.0290 ca         1 BCK      -0.130500
     12 C9           3.6540    -0.6670    -0.1610 ca         1 BCK      -0.119000
     13 C8           2.8600    -1.2600     0.8120 ca         1 BCK      -0.130500
     14 C7           1.5170    -0.9240     0.9140 ca         1 BCK      -0.109500
     15 H1          -2.4030    -3.1340    -1.4600 ho         1 BCK       0.398000
     16 H2          -2.1990    -2.4440     0.6850 h1         1 BCK       0.022200
     17 H3          -0.6250    -2.3750    -0.0950 h1         1 BCK       0.022200
     18 H4          -3.7200     0.1490     0.2850 h4         1 BCK       0.040100
     19 H5          -0.7180     3.5080     1.0710 h1         1 BCK       0.057367
     20 H6           0.7950     2.6200     0.8540 h1         1 BCK       0.057367
     21 H7          -0.0440     3.2900    -0.5530 h1         1 BCK       0.057367
     22 H8           1.3300     1.3110    -1.6260 ha         1 BCK       0.136500
     23 H9           3.7140     0.7320    -1.7890 ha         1 BCK       0.134000
     24 H10          4.7000    -0.9300    -0.2420 ha         1 BCK       0.133000
     25 H11          3.2870    -1.9820     1.4950 ha         1 BCK       0.134000
     26 H12          0.9040    -1.3790     1.6820 ha         1 BCK       0.136500
@<TRIPOS>BOND
     1     1     2 1   
     2     1    15 1   
     3     2     3 1   
     4     2    16 1   
     5     2    17 1   
     6     3     4 1   
     7     3     8 2   
     8     4     5 2   
     9     4    18 1   
    10     5     6 1   
    11     6     7 1   
    12     6     8 1   
    13     7    19 1   
    14     7    20 1   
    15     7    21 1   
    16     8     9 1   
    17     9    10 ar  
    18     9    14 ar  
    19    10    11 ar  
    20    10    22 1   
    21    11    12 ar  
    22    11    23 1   
    23    12    13 ar  
    24    12    24 1   
    25    13    14 ar  
    26    13    25 1   
    27    14    26 1   
@<TRIPOS>SUBSTRUCTURE
     1 BCK         1 TEMP              0 ****  ****    0 ROOT
