@<TRIPOS>MOLECULE
BCK
   26    27     1     0     0
SMALL
No Charge or Current Charge


@<TRIPOS>ATOM
      1 O13         -2.8450    -2.3790    -0.6900 oh         1 BCK      -0.655000
      2 C12         -1.6280    -1.9760    -0.0560 c3         1 BCK       0.246900
      3 C3          -1.5270    -0.4740     0.0250 cc         1 BCK      -0.197300
      4 C4          -2.6520     0.3610     0.1220 cc         1 BCK       0.263900
      5 N5          -2.3810     1.6450     0.1640 nd         1 BCK      -0.524800
      6 N1          -0.9970     1.6590     0.0850 na         1 BCK       0.138800
      7 C14         -0.2870     2.9410     0.2320 c3         1 BCK       0.070900
      8 C2          -0.4380     0.3640    -0.0330 cd         1 BCK      -0.082000
      9 C6           1.0060     0.0060    -0.0310 ca         1 BCK      -0.029000
     10 C11          1.9720     0.8730    -0.5920 ca         1 BCK      -0.091500
     11 C10          3.3370     0.5340    -0.5930 ca         1 BCK      -0.112500
     12 C9           3.7630    -0.6780    -0.0300 ca         1 BCK      -0.101000
     13 C8           2.8190    -1.5500     0.5300 ca         1 BCK      -0.112500
     14 C7           1.4550    -1.2130     0.5280 ca         1 BCK      -0.091500
     15 H1          -2.8310    -3.3600    -0.7220 ho         1 BCK       0.437000
     16 H2          -1.5750    -2.3920     0.9590 h1         1 BCK       0.022200
     17 H3          -0.7730    -2.3630    -0.6260 h1         1 BCK       0.022200
     18 H4          -3.6890     0.0560     0.1710 h4         1 BCK       0.040100
     19 H5          -0.9390     3.6730     0.7240 h1         1 BCK       0.057367
     20 H6           0.6100     2.8000     0.8460 h1         1 BCK       0.057367
     21 H7          -0.0070     3.3220    -0.7570 h1         1 BCK       0.057367
     22 H8           1.6760     1.7980    -1.0740 ha         1 BCK       0.118500
     23 H9           4.0640     1.2100    -1.0390 ha         1 BCK       0.116000
     24 H10          4.8190    -0.9400    -0.0300 ha         1 BCK       0.115000
     25 H11          3.1450    -2.4880     0.9750 ha         1 BCK       0.116000
     26 H12          0.7590    -1.8940     1.0060 ha         1 BCK       0.118500
@<TRIPOS>BOND
     1     1     2 1   
     2     1    15 1   
     3     2     3 1   
     4     2    16 1   
     5     2    17 1   
     6     3     4 1   
     7     3     8 2   
     8     4     5 2   
     9     4    18 1   
    10     5     6 1   
    11     6     7 1   
    12     6     8 1   
    13     7    19 1   
    14     7    20 1   
    15     7    21 1   
    16     8     9 1   
    17     9    10 ar  
    18     9    14 ar  
    19    10    11 ar  
    20    10    22 1   
    21    11    12 ar  
    22    11    23 1   
    23    12    13 ar  
    24    12    24 1   
    25    13    14 ar  
    26    13    25 1   
    27    14    26 1   
@<TRIPOS>SUBSTRUCTURE
     1 BCK         1 TEMP              0 ****  ****    0 ROOT
