@<TRIPOS>MOLECULE
BCN
   23    22     1     0     0
SMALL
abcg2


@<TRIPOS>ATOM
      1 N1          -0.6080     0.7730    -0.2800 n3         1 BCN      -0.822600
      2 C1           0.4650     1.4320     0.3990 c3         1 BCN       0.089800
      3 C2           1.6080     0.5260     0.9010 c          1 BCN       0.705000
      4 O21          1.3100    -0.6530     1.2240 o          1 BCN      -0.723000
      5 O22          2.7280     1.0470     1.0110 o          1 BCN      -0.723000
      6 C3          -1.8950     0.6320     0.3480 c3         1 BCN       0.229300
      7 C4          -2.1990    -0.8230     0.6670 c3         1 BCN       0.163600
      8 O4          -1.2600    -1.3600     1.5640 oh         1 BCN      -0.684000
      9 C5          -0.5620     0.8010    -1.7180 c3         1 BCN       0.229300
     10 C6           0.5760     0.0110    -2.3320 c3         1 BCN       0.163600
     11 O6           0.4000    -1.3630    -2.0840 oh         1 BCN      -0.684000
     12 H11          0.8920     2.2100    -0.2470 h1         1 BCN       0.012700
     13 H12          0.0820     1.9560     1.2870 h1         1 BCN       0.012700
     14 H31         -2.6990     1.0370    -0.2810 h1         1 BCN       0.009450
     15 H32         -1.9120     1.2140     1.2750 h1         1 BCN       0.009450
     16 H41         -2.2360    -1.3810    -0.2800 h1         1 BCN       0.007450
     17 H42         -3.1960    -0.9050     1.1150 h1         1 BCN       0.007450
     18 HO4         -0.3440    -1.0640     1.2940 ho         1 BCN       0.480500
     19 H51         -1.5050     0.4150    -2.1100 h1         1 BCN       0.009450
     20 H52         -0.4610     1.8310    -2.1030 h1         1 BCN       0.009450
     21 H61          0.5910     0.2280    -3.4090 h1         1 BCN       0.007450
     22 H62          1.5300     0.3780    -1.9320 h1         1 BCN       0.007450
     23 HO6          1.1620    -1.8260    -2.4410 ho         1 BCN       0.480500
@<TRIPOS>BOND
     1     1     2 1   
     2     1     6 1   
     3     1     9 1   
     4     2     3 1   
     5     2    12 1   
     6     2    13 1   
     7     3     4 1   
     8     3     5 1   
     9     6     7 1   
    10     6    14 1   
    11     6    15 1   
    12     7     8 1   
    13     7    16 1   
    14     7    17 1   
    15     8    18 1   
    16     9    10 1   
    17     9    19 1   
    18     9    20 1   
    19    10    11 1   
    20    10    21 1   
    21    10    22 1   
    22    11    23 1   
@<TRIPOS>SUBSTRUCTURE
     1 BCN         1 TEMP              0 ****  ****    0 ROOT
