@<TRIPOS>MOLECULE
BCN
   23    22     1     0     0
SMALL
No Charge or Current Charge


@<TRIPOS>ATOM
      1 N1          -0.7970     1.3160    -0.3520 n3         1 BCN      -0.822600
      2 C1           0.3100     1.6770     0.6090 c3         1 BCN       0.089800
      3 C2           1.5600     0.7320     0.7850 c          1 BCN       0.705000
      4 O21          1.4820    -0.1850     1.5930 o          1 BCN      -0.723000
      5 O22          2.5680     0.9580     0.1260 o          1 BCN      -0.723000
      6 C3          -1.8910     0.4280     0.1610 c3         1 BCN       0.229300
      7 C4          -1.5360    -1.0140     0.6630 c3         1 BCN       0.163600
      8 O4          -0.9740    -1.0100     1.9850 oh         1 BCN      -0.684000
      9 C5          -0.3890     1.1340    -1.7820 c3         1 BCN       0.229300
     10 C6           0.2250    -0.2360    -2.2230 c3         1 BCN       0.163600
     11 O6          -0.7920    -1.1850    -2.5990 oh         1 BCN      -0.684000
     12 H11          0.7100     2.6560     0.3120 h1         1 BCN       0.012700
     13 H12         -0.1190     1.8280     1.6090 h1         1 BCN       0.012700
     14 H31         -2.6410     0.3160    -0.6340 h1         1 BCN       0.009450
     15 H32         -2.4070     0.9440     0.9820 h1         1 BCN       0.009450
     16 H41         -0.8500    -1.5080    -0.0320 h1         1 BCN       0.007450
     17 H42         -2.4640    -1.6020     0.6730 h1         1 BCN       0.007450
     18 HO4         -0.0290    -0.6960     1.8730 ho         1 BCN       0.480500
     19 H51         -1.2550     1.3380    -2.4270 h1         1 BCN       0.009450
     20 H52          0.3490     1.9100    -2.0260 h1         1 BCN       0.009450
     21 H61          0.8740    -0.0500    -3.0880 h1         1 BCN       0.007450
     22 H62          0.8570    -0.6440    -1.4250 h1         1 BCN       0.007450
     23 HO6         -0.3240    -1.9910    -2.9170 ho         1 BCN       0.480500
@<TRIPOS>BOND
     1     1     2 1   
     2     1     6 1   
     3     1     9 1   
     4     2     3 1   
     5     2    12 1   
     6     2    13 1   
     7     3     4 1   
     8     3     5 1   
     9     6     7 1   
    10     6    14 1   
    11     6    15 1   
    12     7     8 1   
    13     7    16 1   
    14     7    17 1   
    15     8    18 1   
    16     9    10 1   
    17     9    19 1   
    18     9    20 1   
    19    10    11 1   
    20    10    21 1   
    21    10    22 1   
    22    11    23 1   
@<TRIPOS>SUBSTRUCTURE
     1 BCN         1 TEMP              0 ****  ****    0 ROOT
