@<TRIPOS>MOLECULE
BCP
   13    14     1     0     0
SMALL
No Charge or Current Charge


@<TRIPOS>ATOM
      1 Cl          -2.4690    -0.0210    -2.1210 cl         1 BCP      -0.135000
      2 C6          -0.9770    -0.0310    -1.1910 ca         1 BCP       0.233000
      3 N1          -1.0630    -0.0520     0.1560 nb         1 BCP      -0.143000
      4 C2           0.1140    -0.0590     0.8310 ca         1 BCP       0.180200
      5 Br           0.0010    -0.0870     2.7390 br         1 BCP      -0.090200
      6 C5           0.2840    -0.0190    -1.8040 ca         1 BCP      -0.197200
      7 C4           1.4260    -0.0270    -1.0490 ca         1 BCP       0.238000
      8 N3           1.3620    -0.0480     0.2980 nb         1 BCP      -0.079000
      9 N7           0.6520     0.0010    -3.1180 na         1 BCP      -0.278600
     10 C8           2.0420     0.0050    -3.1420 cc         1 BCP       0.443700
     11 N9           2.5440    -0.0120    -1.8860 nd         1 BCP      -0.623700
     12 H7           0.0490     0.0120    -3.9320 hn         1 BCP       0.377000
     13 H8           2.6100     0.0200    -4.0650 h5         1 BCP       0.074800
@<TRIPOS>BOND
     1     1     2 1   
     2     2     3 ar  
     3     2     6 ar  
     4     3     4 ar  
     5     4     5 1   
     6     4     8 ar  
     7     6     7 ar  
     8     6     9 1   
     9     7     8 ar  
    10     7    11 1   
    11     9    10 1   
    12     9    12 1   
    13    10    11 2   
    14    10    13 1   
@<TRIPOS>SUBSTRUCTURE
     1 BCP         1 TEMP              0 ****  ****    0 ROOT
