@<TRIPOS>MOLECULE
BCP
   13    14     1     0     0
SMALL
bcc


@<TRIPOS>ATOM
      1 CL          -2.4640    -0.0240    -2.0380 cl         1 BCP      -0.135000
      2 C6          -0.9820    -0.0320    -1.1800 ca         1 BCP       0.561300
      3 N1          -1.0100    -0.0510     0.1320 nb         1 BCP      -0.669000
      4 C2           0.1530    -0.0570     0.7700 ca         1 BCP       0.706200
      5 BR           0.0260    -0.0850     2.6530 br         1 BCP      -0.090200
      6 C5           0.2260    -0.0190    -1.8420 ca         1 BCP      -0.327800
      7 C4           1.3930    -0.0280    -1.0580 ca         1 BCP       0.566300
      8 N3           1.3600    -0.0480     0.2730 nb         1 BCP      -0.605000
      9 N7           0.6620     0.0010    -3.1290 na         1 BCP      -0.228300
     10 C8           2.0100     0.0040    -3.0710 cc         1 BCP       0.443700
     11 N9           2.4910    -0.0130    -1.8530 nd         1 BCP      -0.623700
     12 H7           0.1040     0.0150    -3.9700 hn         1 BCP       0.326700
     13 H8           2.6060     0.0190    -3.9710 h5         1 BCP       0.074800
@<TRIPOS>BOND
     1     1     2 1   
     2     2     3 ar  
     3     2     6 ar  
     4     3     4 ar  
     5     4     5 1   
     6     4     8 ar  
     7     6     7 ar  
     8     6     9 1   
     9     7     8 ar  
    10     7    11 1   
    11     9    10 1   
    12     9    12 1   
    13    10    11 2   
    14    10    13 1   
@<TRIPOS>SUBSTRUCTURE
     1 BCP         1 TEMP              0 ****  ****    0 ROOT
