@<TRIPOS>MOLECULE
BCR
   96    97     1     0     0
SMALL
abcg2


@<TRIPOS>ATOM
      1 C1          66.6020    70.4780    86.7300 c6         1 BCR       0.000200
      2 C2          67.2950    69.1290    86.9480 c6         1 BCR      -0.067400
      3 C3          68.7360    69.1340    86.4800 c6         1 BCR      -0.071400
      4 C4          68.7900    69.4280    84.9920 c6         1 BCR      -0.040700
      5 C5          67.8850    70.5490    84.5520 c2         1 BCR      -0.095900
      6 C6          66.8770    71.0080    85.3200 ce         1 BCR      -0.081200
      7 C7          65.9800    72.0900    84.8960 ce         1 BCR      -0.156000
      8 C8          65.3610    72.1800    83.7080 cf         1 BCR      -0.190000
      9 C9          64.4780    73.2570    83.2930 cf         1 BCR      -0.058200
     10 C10         63.9730    73.2180    82.0340 ce         1 BCR      -0.184000
     11 C11         63.1250    74.1920    81.4050 ce         1 BCR      -0.168000
     12 C33         68.2290    71.0780    83.1890 c3         1 BCR      -0.057900
     13 C31         67.0970    71.4940    87.7690 c3         1 BCR      -0.080850
     14 C32         65.0970    70.2660    86.9350 c3         1 BCR      -0.080850
     15 C34         64.1940    74.3540    84.2740 c3         1 BCR      -0.056900
     16 C12         62.7060    74.0760    80.1240 cf         1 BCR      -0.178000
     17 C13         61.8900    75.0340    79.4140 cf         1 BCR      -0.061200
     18 C14         61.5700    74.7690    78.1190 ce         1 BCR      -0.178000
     19 C15         60.8090    75.5890    77.2260 ce         1 BCR      -0.171000
     20 C16         60.5540    75.2380    75.9410 cf         1 BCR      -0.171000
     21 C17         59.8150    76.0710    75.0410 cf         1 BCR      -0.178000
     22 C18         59.5190    75.8220    73.7370 ce         1 BCR      -0.061200
     23 C19         58.7760    76.8200    73.0040 ce         1 BCR      -0.178000
     24 C20         58.4220    76.7420    71.7010 cf         1 BCR      -0.168000
     25 C21         57.6850    77.7810    71.0360 cf         1 BCR      -0.184000
     26 C22         57.2830    77.8050    69.7400 ce         1 BCR      -0.058200
     27 C23         56.5260    78.9580    69.2810 ce         1 BCR      -0.190000
     28 C24         56.0230    79.1220    68.0460 cf         1 BCR      -0.156000
     29 C25         55.2210    80.2640    67.5900 cf         1 BCR      -0.081200
     30 C26         55.5850    81.5460    67.7900 c2         1 BCR      -0.095900
     31 C27         54.7380    82.7080    67.3400 c6         1 BCR      -0.040700
     32 C28         53.6640    82.3420    66.3320 c6         1 BCR      -0.071400
     33 C29         52.9800    81.0570    66.7540 c6         1 BCR      -0.067400
     34 C30         53.9500    79.8740    66.8290 c6         1 BCR       0.000200
     35 C35         61.4550    76.2720    80.1400 c3         1 BCR      -0.055900
     36 C36         59.9280    74.5710    73.0180 c3         1 BCR      -0.055900
     37 C37         57.5660    76.7100    68.7580 c3         1 BCR      -0.056900
     38 C38         56.8540    81.9740    68.4720 c3         1 BCR      -0.057900
     39 C39         54.3210    79.4060    65.4150 c3         1 BCR      -0.080850
     40 C40         53.2290    78.7270    67.5470 c3         1 BCR      -0.080850
     41 HC21        67.2270    68.8610    88.0070 hc         1 BCR       0.041450
     42 HC22        66.7480    68.3530    86.4000 hc         1 BCR       0.041450
     43 HC31        69.3120    69.8850    87.0280 hc         1 BCR       0.041200
     44 HC32        69.2100    68.1720    86.6900 hc         1 BCR       0.041200
     45 HC41        69.8160    69.6590    84.6890 hc         1 BCR       0.044700
     46 HC42        68.5200    68.5270    84.4240 hc         1 BCR       0.044700
     47 HC7         65.7710    72.8490    85.6460 ha         1 BCR       0.172000
     48 HC8         65.5170    71.3920    82.9770 ha         1 BCR       0.173000
     49 H10C        64.2510    72.3690    81.4150 ha         1 BCR       0.169000
     50 H11C        62.8240    75.0610    81.9800 ha         1 BCR       0.173000
     51 H331        67.8070    72.0600    82.9870 hc         1 BCR       0.041367
     52 H332        69.3130    71.1440    83.0750 hc         1 BCR       0.041367
     53 H333        67.8770    70.4040    82.4020 hc         1 BCR       0.041367
     54 H311        66.6080    72.4630    87.6550 hc         1 BCR       0.033867
     55 H312        66.8790    71.1390    88.7790 hc         1 BCR       0.033867
     56 H313        68.1720    71.6600    87.6960 hc         1 BCR       0.033867
     57 H321        64.5340    71.2000    86.8920 hc         1 BCR       0.033867
     58 H322        64.6850    69.5940    86.1790 hc         1 BCR       0.033867
     59 H323        64.9130    69.8200    87.9150 hc         1 BCR       0.033867
     60 H341        63.5100    75.1050    83.8880 hc         1 BCR       0.042033
     61 H342        63.7550    73.9520    85.1900 hc         1 BCR       0.042033
     62 H343        65.1140    74.8650    84.5660 hc         1 BCR       0.042033
     63 H12C        63.0140    73.1990    79.5610 ha         1 BCR       0.170000
     64 H14C        61.9380    73.8360    77.6980 ha         1 BCR       0.169000
     65 H15C        60.4240    76.5400    77.5810 ha         1 BCR       0.172000
     66 H16C        60.9370    74.2870    75.5850 ha         1 BCR       0.172000
     67 H17C        59.4640    77.0130    75.4570 ha         1 BCR       0.169000
     68 H19C        58.4870    77.7070    73.5610 ha         1 BCR       0.170000
     69 H20C        58.7040    75.8650    71.1300 ha         1 BCR       0.173000
     70 H21C        57.4210    78.6360    71.6530 ha         1 BCR       0.169000
     71 H23C        56.3450    79.7290    70.0250 ha         1 BCR       0.173000
     72 H24C        56.1500    78.3170    67.3260 ha         1 BCR       0.172000
     73 H271        54.2780    83.1590    68.2280 hc         1 BCR       0.044700
     74 H272        55.3890    83.4870    66.9300 hc         1 BCR       0.044700
     75 H281        52.9370    83.1530    66.2480 hc         1 BCR       0.041200
     76 H282        54.1090    82.2280    65.3400 hc         1 BCR       0.041200
     77 H291        52.5250    81.2070    67.7400 hc         1 BCR       0.041450
     78 H292        52.1640    80.8040    66.0720 hc         1 BCR       0.041450
     79 H351        60.8370    76.9270    79.5330 hc         1 BCR       0.042033
     80 H352        60.8820    76.0170    81.0340 hc         1 BCR       0.042033
     81 H353        62.3180    76.8510    80.4750 hc         1 BCR       0.042033
     82 H361        60.5710    74.8020    72.1660 hc         1 BCR       0.042033
     83 H362        60.4670    73.8720    73.6530 hc         1 BCR       0.042033
     84 H363        59.0560    74.0470    72.6210 hc         1 BCR       0.042033
     85 H371        56.6380    76.2780    68.3770 hc         1 BCR       0.042033
     86 H372        58.1120    77.0930    67.8930 hc         1 BCR       0.042033
     87 H373        58.1540    75.8990    69.1800 hc         1 BCR       0.042033
     88 H381        57.3180    82.7920    67.9170 hc         1 BCR       0.041367
     89 H382        56.6530    82.3590    69.4760 hc         1 BCR       0.041367
     90 H383        57.5840    81.1740    68.5700 hc         1 BCR       0.041367
     91 H391        53.4250    79.0930    64.8720 hc         1 BCR       0.033867
     92 H392        54.8050    80.1930    64.8370 hc         1 BCR       0.033867
     93 H393        54.9980    78.5500    65.4360 hc         1 BCR       0.033867
     94 H401        52.2870    78.5040    67.0400 hc         1 BCR       0.033867
     95 H402        53.8170    77.8090    67.5610 hc         1 BCR       0.033867
     96 H403        52.9980    78.9910    68.5810 hc         1 BCR       0.033867
@<TRIPOS>BOND
     1     1     2 1   
     2     1     6 1   
     3     1    13 1   
     4     1    14 1   
     5     2     3 1   
     6     2    41 1   
     7     2    42 1   
     8     3     4 1   
     9     3    43 1   
    10     3    44 1   
    11     4     5 1   
    12     4    45 1   
    13     4    46 1   
    14     5     6 2   
    15     5    12 1   
    16     6     7 1   
    17     7     8 2   
    18     7    47 1   
    19     8     9 1   
    20     8    48 1   
    21     9    10 2   
    22     9    15 1   
    23    10    11 1   
    24    10    49 1   
    25    11    16 2   
    26    11    50 1   
    27    12    51 1   
    28    12    52 1   
    29    12    53 1   
    30    13    54 1   
    31    13    55 1   
    32    13    56 1   
    33    14    57 1   
    34    14    58 1   
    35    14    59 1   
    36    15    60 1   
    37    15    61 1   
    38    15    62 1   
    39    16    17 1   
    40    16    63 1   
    41    17    18 2   
    42    17    35 1   
    43    18    19 1   
    44    18    64 1   
    45    19    20 2   
    46    19    65 1   
    47    20    21 1   
    48    20    66 1   
    49    21    22 2   
    50    21    67 1   
    51    22    23 1   
    52    22    36 1   
    53    23    24 2   
    54    23    68 1   
    55    24    25 1   
    56    24    69 1   
    57    25    26 2   
    58    25    70 1   
    59    26    27 1   
    60    26    37 1   
    61    27    28 2   
    62    27    71 1   
    63    28    29 1   
    64    28    72 1   
    65    29    30 2   
    66    29    34 1   
    67    30    31 1   
    68    30    38 1   
    69    31    32 1   
    70    31    73 1   
    71    31    74 1   
    72    32    33 1   
    73    32    75 1   
    74    32    76 1   
    75    33    34 1   
    76    33    77 1   
    77    33    78 1   
    78    34    39 1   
    79    34    40 1   
    80    35    79 1   
    81    35    80 1   
    82    35    81 1   
    83    36    82 1   
    84    36    83 1   
    85    36    84 1   
    86    37    85 1   
    87    37    86 1   
    88    37    87 1   
    89    38    88 1   
    90    38    89 1   
    91    38    90 1   
    92    39    91 1   
    93    39    92 1   
    94    39    93 1   
    95    40    94 1   
    96    40    95 1   
    97    40    96 1   
@<TRIPOS>SUBSTRUCTURE
     1 BCR         1 TEMP              0 ****  ****    0 ROOT
