@<TRIPOS>MOLECULE
BCR
   96    97     1     0     0
SMALL
No Charge or Current Charge


@<TRIPOS>ATOM
      1 C1          66.9060    70.6770    87.0350 c6         1 BCR       0.000200
      2 C2          67.4280    69.2520    87.3790 c6         1 BCR      -0.067400
      3 C3          68.7670    68.9460    86.6850 c6         1 BCR      -0.071400
      4 C4          68.5970    68.9680    85.1530 c6         1 BCR      -0.040700
      5 C5          67.7810    70.1520    84.6220 c2         1 BCR      -0.095900
      6 C6          66.9550    70.8860    85.4510 ce         1 BCR      -0.081200
      7 C7          66.1280    72.0140    84.9810 ce         1 BCR      -0.156000
      8 C8          65.3620    72.0250    83.8520 cf         1 BCR      -0.190000
      9 C9          64.5150    73.1170    83.3620 cf         1 BCR      -0.058200
     10 C10         64.0200    73.0730    82.0890 ce         1 BCR      -0.184000
     11 C11         63.1620    74.0710    81.4290 ce         1 BCR      -0.168000
     12 C33         67.9930    70.3350    83.0960 c3         1 BCR      -0.057900
     13 C31         67.7730    71.7600    87.8060 c3         1 BCR      -0.080850
     14 C32         65.4430    70.7970    87.6330 c3         1 BCR      -0.080850
     15 C34         64.1680    74.2350    84.3430 c3         1 BCR      -0.056900
     16 C12         62.6580    73.9230    80.1710 cf         1 BCR      -0.178000
     17 C13         61.8120    74.8680    79.4350 cf         1 BCR      -0.061200
     18 C14         61.6030    74.6940    78.0950 ce         1 BCR      -0.178000
     19 C15         60.7920    75.5360    77.2010 ce         1 BCR      -0.171000
     20 C16         60.5800    75.2650    75.8850 cf         1 BCR      -0.171000
     21 C17         59.7870    76.1080    74.9930 cf         1 BCR      -0.178000
     22 C18         59.4820    75.8730    73.6810 ce         1 BCR      -0.061200
     23 C19         58.6620    76.8460    72.9320 ce         1 BCR      -0.178000
     24 C20         58.4600    76.8910    71.5840 cf         1 BCR      -0.168000
     25 C21         57.6290    77.8940    70.9190 cf         1 BCR      -0.184000
     26 C22         57.4300    78.0480    69.5760 ce         1 BCR      -0.058200
     27 C23         56.5520    79.1270    69.0830 ce         1 BCR      -0.190000
     28 C24         56.0330    79.2650    67.8270 cf         1 BCR      -0.156000
     29 C25         55.1240    80.3620    67.4070 cf         1 BCR      -0.081200
     30 C26         55.3680    81.6800    67.6820 c2         1 BCR      -0.095900
     31 C27         54.3690    82.7940    67.2760 c6         1 BCR      -0.040700
     32 C28         53.2340    82.3830    66.2840 c6         1 BCR      -0.071400
     33 C29         52.7290    80.9770    66.6510 c6         1 BCR      -0.067400
     34 C30         53.8630    79.9040    66.6010 c6         1 BCR       0.000200
     35 C35         61.1400    75.9830    80.2320 c3         1 BCR      -0.055900
     36 C36         59.8970    74.5980    72.9500 c3         1 BCR      -0.055900
     37 C37         58.1380    77.1900    68.5300 c3         1 BCR      -0.056900
     38 C38         56.5930    82.2180    68.4100 c3         1 BCR      -0.057900
     39 C39         54.3060    79.6240    65.1310 c3         1 BCR      -0.080850
     40 C40         53.2950    78.5730    67.1900 c3         1 BCR      -0.080850
     41 HC21        67.5400    69.1370    88.4660 hc         1 BCR       0.041450
     42 HC22        66.6890    68.4990    87.0690 hc         1 BCR       0.041450
     43 HC31        69.5350    69.6700    86.9880 hc         1 BCR       0.041200
     44 HC32        69.1360    67.9610    87.0000 hc         1 BCR       0.041200
     45 HC41        69.5950    68.9540    84.6950 hc         1 BCR       0.044700
     46 HC42        68.1060    68.0380    84.8330 hc         1 BCR       0.044700
     47 HC7         66.1210    72.8900    85.6290 ha         1 BCR       0.172000
     48 HC8         65.3720    71.1240    83.2370 ha         1 BCR       0.173000
     49 H10C        64.2960    72.2160    81.4720 ha         1 BCR       0.169000
     50 H11C        62.9450    74.9850    81.9800 ha         1 BCR       0.173000
     51 H331        67.7290    71.3450    82.7640 hc         1 BCR       0.041367
     52 H332        69.0400    70.1810    82.8110 hc         1 BCR       0.041367
     53 H333        67.3860    69.6200    82.5270 hc         1 BCR       0.041367
     54 H311        67.3530    72.7660    87.6880 hc         1 BCR       0.033867
     55 H312        67.8200    71.5500    88.8810 hc         1 BCR       0.033867
     56 H313        68.8010    71.7990    87.4280 hc         1 BCR       0.033867
     57 H321        65.0310    71.8060    87.5130 hc         1 BCR       0.033867
     58 H322        64.7560    70.1020    87.1350 hc         1 BCR       0.033867
     59 H323        65.4270    70.5650    88.7060 hc         1 BCR       0.033867
     60 H341        63.1840    74.6720    84.1430 hc         1 BCR       0.042033
     61 H342        64.1210    73.8730    85.3760 hc         1 BCR       0.042033
     62 H343        64.9090    75.0410    84.3010 hc         1 BCR       0.042033
     63 H12C        62.9240    73.0090    79.6350 ha         1 BCR       0.170000
     64 H14C        62.0990    73.8490    77.6150 ha         1 BCR       0.169000
     65 H15C        60.3420    76.4380    77.6180 ha         1 BCR       0.172000
     66 H16C        61.0410    74.3680    75.4700 ha         1 BCR       0.172000
     67 H17C        59.4150    77.0360    75.4330 ha         1 BCR       0.169000
     68 H19C        58.1850    77.6220    73.5330 ha         1 BCR       0.170000
     69 H20C        58.9420    76.1430    70.9560 ha         1 BCR       0.173000
     70 H21C        57.1020    78.5820    71.5830 ha         1 BCR       0.169000
     71 H23C        56.2640    79.8720    69.8260 ha         1 BCR       0.173000
     72 H24C        56.2590    78.4640    67.1040 ha         1 BCR       0.172000
     73 H271        53.9060    83.1810    68.1940 hc         1 BCR       0.044700
     74 H272        54.9140    83.6430    66.8410 hc         1 BCR       0.044700
     75 H281        52.4110    83.1100    66.3290 hc         1 BCR       0.041200
     76 H282        53.6090    82.4000    65.2520 hc         1 BCR       0.041200
     77 H291        52.2970    81.0100    67.6620 hc         1 BCR       0.041450
     78 H292        51.9080    80.6930    65.9790 hc         1 BCR       0.041450
     79 H351        60.1710    76.2700    79.8100 hc         1 BCR       0.042033
     80 H352        60.9290    75.6810    81.2640 hc         1 BCR       0.042033
     81 H353        61.7700    76.8800    80.2660 hc         1 BCR       0.042033
     82 H361        60.8500    74.7350    72.4260 hc         1 BCR       0.042033
     83 H362        60.0080    73.7460    73.6290 hc         1 BCR       0.042033
     84 H363        59.1490    74.2870    72.2130 hc         1 BCR       0.042033
     85 H371        57.5400    76.3090    68.2710 hc         1 BCR       0.042033
     86 H372        58.3340    77.7470    67.6070 hc         1 BCR       0.042033
     87 H373        59.1180    76.8410    68.8730 hc         1 BCR       0.042033
     88 H381        56.9120    83.1820    67.9990 hc         1 BCR       0.041367
     89 H382        56.3810    82.3680    69.4760 hc         1 BCR       0.041367
     90 H383        57.4540    81.5470    68.3250 hc         1 BCR       0.041367
     91 H391        53.4490    79.3640    64.4980 hc         1 BCR       0.033867
     92 H392        54.7980    80.4950    64.6830 hc         1 BCR       0.033867
     93 H393        55.0170    78.7920    65.0740 hc         1 BCR       0.033867
     94 H401        52.3590    78.2870    66.6950 hc         1 BCR       0.033867
     95 H402        53.9870    77.7310    67.0690 hc         1 BCR       0.033867
     96 H403        53.0840    78.6760    68.2610 hc         1 BCR       0.033867
@<TRIPOS>BOND
     1     1     2 1   
     2     1     6 1   
     3     1    13 1   
     4     1    14 1   
     5     2     3 1   
     6     2    41 1   
     7     2    42 1   
     8     3     4 1   
     9     3    43 1   
    10     3    44 1   
    11     4     5 1   
    12     4    45 1   
    13     4    46 1   
    14     5     6 2   
    15     5    12 1   
    16     6     7 1   
    17     7     8 2   
    18     7    47 1   
    19     8     9 1   
    20     8    48 1   
    21     9    10 2   
    22     9    15 1   
    23    10    11 1   
    24    10    49 1   
    25    11    16 2   
    26    11    50 1   
    27    12    51 1   
    28    12    52 1   
    29    12    53 1   
    30    13    54 1   
    31    13    55 1   
    32    13    56 1   
    33    14    57 1   
    34    14    58 1   
    35    14    59 1   
    36    15    60 1   
    37    15    61 1   
    38    15    62 1   
    39    16    17 1   
    40    16    63 1   
    41    17    18 2   
    42    17    35 1   
    43    18    19 1   
    44    18    64 1   
    45    19    20 2   
    46    19    65 1   
    47    20    21 1   
    48    20    66 1   
    49    21    22 2   
    50    21    67 1   
    51    22    23 1   
    52    22    36 1   
    53    23    24 2   
    54    23    68 1   
    55    24    25 1   
    56    24    69 1   
    57    25    26 2   
    58    25    70 1   
    59    26    27 1   
    60    26    37 1   
    61    27    28 2   
    62    27    71 1   
    63    28    29 1   
    64    28    72 1   
    65    29    30 2   
    66    29    34 1   
    67    30    31 1   
    68    30    38 1   
    69    31    32 1   
    70    31    73 1   
    71    31    74 1   
    72    32    33 1   
    73    32    75 1   
    74    32    76 1   
    75    33    34 1   
    76    33    77 1   
    77    33    78 1   
    78    34    39 1   
    79    34    40 1   
    80    35    79 1   
    81    35    80 1   
    82    35    81 1   
    83    36    82 1   
    84    36    83 1   
    85    36    84 1   
    86    37    85 1   
    87    37    86 1   
    88    37    87 1   
    89    38    88 1   
    90    38    89 1   
    91    38    90 1   
    92    39    91 1   
    93    39    92 1   
    94    39    93 1   
    95    40    94 1   
    96    40    95 1   
    97    40    96 1   
@<TRIPOS>SUBSTRUCTURE
     1 BCR         1 TEMP              0 ****  ****    0 ROOT
