@<TRIPOS>MOLECULE
BCS
   26    26     1     0     0
SMALL
bcc


@<TRIPOS>ATOM
      1 N           11.6200     7.5380    27.3080 n8         1 BCS      -0.879800
      2 CA          10.4530     6.9200    27.9080 c3         1 BCS       0.019500
      3 CB          10.8520     5.6140    28.5800 c3         1 BCS       0.072700
      4 SG          11.5100     4.3620    27.4380 ss         1 BCS      -0.434200
      5 CD           9.9830     3.8420    26.5850 c3         1 BCS       0.073000
      6 CE           9.0250     3.1340    27.4930 ca         1 BCS      -0.076300
      7 CZ1          7.9360     3.8050    28.0420 ca         1 BCS      -0.111500
      8 CZ2          9.2250     1.7960    27.8290 ca         1 BCS      -0.111500
      9 CT1          7.0630     3.1550    28.9070 ca         1 BCS      -0.133500
     10 CT2          8.3530     1.1430    28.6870 ca         1 BCS      -0.133500
     11 CH           7.2690     1.8220    29.2310 ca         1 BCS      -0.141000
     12 C            9.7570     7.8560    28.9340 c          1 BCS       0.933600
     13 O           10.1720     9.0260    29.0180 o          1 BCS      -0.828300
     14 OXT          8.8100     7.3470    29.5670 o          1 BCS      -0.828300
     15 H           11.3840     8.4750    27.0130 hn         1 BCS       0.327800
     16 H2          11.8820     7.0240    26.4770 hn         1 BCS       0.327800
     17 HA           9.6710     6.6880    27.1640 h1         1 BCS      -0.008300
     18 HB2         11.6560     5.7950    29.2970 h1         1 BCS       0.080700
     19 HB3         10.0150     5.1820    29.1250 h1         1 BCS       0.080700
     20 HD2          9.5170     4.7100    26.1170 h1         1 BCS       0.062700
     21 HD3         10.3220     3.1850    25.7820 h1         1 BCS       0.062700
     22 HZ1          7.7690     4.8480    27.7950 ha         1 BCS       0.141000
     23 HZ2         10.0710     1.2610    27.4120 ha         1 BCS       0.141000
     24 HT1          6.2230     3.6940    29.3260 ha         1 BCS       0.123500
     25 HT2          8.5190     0.1020    28.9330 ha         1 BCS       0.123500
     26 HH           6.5890     1.3130    29.9020 ha         1 BCS       0.116000
@<TRIPOS>BOND
     1     1     2 1   
     2     1    15 1   
     3     1    16 1   
     4     2     3 1   
     5     2    12 1   
     6     2    17 1   
     7     3     4 1   
     8     3    18 1   
     9     3    19 1   
    10     4     5 1   
    11     5     6 1   
    12     5    20 1   
    13     5    21 1   
    14     6     7 ar  
    15     6     8 ar  
    16     7     9 ar  
    17     7    22 1   
    18     8    10 ar  
    19     8    23 1   
    20     9    11 ar  
    21     9    24 1   
    22    10    11 ar  
    23    10    25 1   
    24    11    26 1   
    25    12    13 1   
    26    12    14 1   
@<TRIPOS>SUBSTRUCTURE
     1 BCS         1 TEMP              0 ****  ****    0 ROOT
