@<TRIPOS>MOLECULE
BCS
   26    26     1     0     0
SMALL
No Charge or Current Charge


@<TRIPOS>ATOM
      1 N           11.5030     7.5070    27.3010 n8         1 BCS      -0.879800
      2 CA          10.4500     6.7750    28.1050 c3         1 BCS       0.019500
      3 CB          11.0100     5.4280    28.6370 c3         1 BCS       0.072700
      4 SG          11.6380     4.3200    27.2750 ss         1 BCS      -0.434200
      5 CD          10.0560     3.8710    26.4180 c3         1 BCS       0.073000
      6 CE           9.0540     3.2440    27.3800 ca         1 BCS      -0.076300
      7 CZ1          7.8640     3.9210    27.7120 ca         1 BCS      -0.111500
      8 CZ2          9.3140     1.9810    27.9480 ca         1 BCS      -0.111500
      9 CT1          6.9450     3.3420    28.6050 ca         1 BCS      -0.133500
     10 CT2          8.3950     1.4030    28.8410 ca         1 BCS      -0.133500
     11 CH           7.2100     2.0830    29.1700 ca         1 BCS      -0.141000
     12 C            9.7290     7.5910    29.2670 c          1 BCS       0.933600
     13 O            8.8140     8.3520    28.9620 o          1 BCS      -0.828300
     14 OXT         10.0940     7.4420    30.4300 o          1 BCS      -0.828300
     15 H           11.0560     8.2570    26.7630 hn         1 BCS       0.327800
     16 H2          11.8760     6.8620    26.5970 hn         1 BCS       0.327800
     17 HA           9.6600     6.5240    27.3840 h1         1 BCS      -0.008300
     18 HB2         11.8350     5.6300    29.3330 h1         1 BCS       0.080700
     19 HB3         10.2270     4.8990    29.1970 h1         1 BCS       0.080700
     20 HD2          9.6270     4.7690    25.9560 h1         1 BCS       0.062700
     21 HD3         10.2810     3.1590    25.6130 h1         1 BCS       0.062700
     22 HZ1          7.6500     4.8960    27.2790 ha         1 BCS       0.141000
     23 HZ2         10.2320     1.4520    27.7000 ha         1 BCS       0.141000
     24 HT1          6.0270     3.8690    28.8590 ha         1 BCS       0.123500
     25 HT2          8.6020     0.4280    29.2780 ha         1 BCS       0.123500
     26 HH           6.4990     1.6350    29.8610 ha         1 BCS       0.116000
@<TRIPOS>BOND
     1     1     2 1   
     2     1    15 1   
     3     1    16 1   
     4     2     3 1   
     5     2    12 1   
     6     2    17 1   
     7     3     4 1   
     8     3    18 1   
     9     3    19 1   
    10     4     5 1   
    11     5     6 1   
    12     5    20 1   
    13     5    21 1   
    14     6     7 ar  
    15     6     8 ar  
    16     7     9 ar  
    17     7    22 1   
    18     8    10 ar  
    19     8    23 1   
    20     9    11 ar  
    21     9    24 1   
    22    10    11 ar  
    23    10    25 1   
    24    11    26 1   
    25    12    13 1   
    26    12    14 1   
@<TRIPOS>SUBSTRUCTURE
     1 BCS         1 TEMP              0 ****  ****    0 ROOT
