@<TRIPOS>MOLECULE
BCT
    5     4     1     0     0
SMALL
No Charge or Current Charge


@<TRIPOS>ATOM
      1 C           35.2180    17.4090   -15.9310 c          1 BCT       1.025700
      2 O1          36.3530    17.8010   -15.7510 o          1 BCT      -0.847800
      3 O2          34.2000    18.0460   -15.7770 o          1 BCT      -0.847800
      4 O3          35.0460    16.1720   -16.3360 oh         1 BCT      -0.743100
      5 HO3         34.0740    16.1940   -16.3760 ho         1 BCT       0.413000
@<TRIPOS>BOND
     1     1     2 1   
     2     1     3 1   
     3     1     4 1   
     4     4     5 1   
@<TRIPOS>SUBSTRUCTURE
     1 BCT         1 TEMP              0 ****  ****    0 ROOT
