@<TRIPOS>MOLECULE
BCT
    5     4     1     0     0
SMALL
bcc


@<TRIPOS>ATOM
      1 C           35.2120    17.4780   -15.9100 c          1 BCT       0.495100
      2 O1          36.4000    17.7830   -15.7540 o          1 BCT      -0.582500
      3 O2          34.1870    18.1570   -15.7420 o          1 BCT      -0.582500
      4 O3          35.0200    16.1710   -16.3370 oh         1 BCT      -0.709100
      5 HO3         34.0710    16.0330   -16.4280 ho         1 BCT       0.379000
@<TRIPOS>BOND
     1     1     2 1   
     2     1     3 1   
     3     1     4 1   
     4     4     5 1   
@<TRIPOS>SUBSTRUCTURE
     1 BCT         1 TEMP              0 ****  ****    0 ROOT
