@<TRIPOS>MOLECULE
BCU
   24    25     1     0     0
SMALL
abcg2


@<TRIPOS>ATOM
      1 O12         -4.0200    -0.1270    -0.2760 oh         1 BCU      -0.661000
      2 C11         -3.0430     0.7800     0.1820 c3         1 BCU       0.168600
      3 C2          -1.6660     0.2820    -0.2140 c6         1 BCU      -0.103700
      4 C3          -1.3370    -1.0430     0.4520 c6         1 BCU       0.168600
      5 O4          -0.0730    -1.5460     0.0400 os         1 BCU      -0.342100
      6 C5           0.9600    -0.6740     0.0180 ca         1 BCU       0.141100
      7 C10          2.2380    -1.2200    -0.1000 ca         1 BCU      -0.142000
      8 C9           3.3450    -0.3900    -0.1420 ca         1 BCU      -0.079000
      9 C8           3.1870     0.9890    -0.0630 ca         1 BCU      -0.145000
     10 C7           1.9120     1.5200     0.0460 ca         1 BCU      -0.074000
     11 C6           0.7800     0.7080     0.0870 ca         1 BCU      -0.159300
     12 C1          -0.6000     1.2980     0.1810 c6         1 BCU      -0.023100
     13 H1          -4.8780     0.1710     0.0380 ho         1 BCU       0.446000
     14 H2          -3.1920     1.7820    -0.2430 h1         1 BCU       0.020700
     15 H3          -3.0810     0.8940     1.2750 h1         1 BCU       0.020700
     16 H4          -1.6410     0.1440    -1.3020 hc         1 BCU       0.080700
     17 H5          -1.3460    -0.9180     1.5430 h1         1 BCU       0.060200
     18 H6          -2.0590    -1.8160     0.1970 h1         1 BCU       0.060200
     19 H7           2.3530    -2.2950    -0.1590 ha         1 BCU       0.127000
     20 H8           4.3340    -0.8230    -0.2340 ha         1 BCU       0.114000
     21 H9           4.0470     1.6450    -0.0940 ha         1 BCU       0.114000
     22 H10          1.7810     2.5950     0.0930 ha         1 BCU       0.107000
     23 H11         -0.6660     2.1830    -0.4560 hc         1 BCU       0.050700
     24 H12         -0.7860     1.6410     1.2050 hc         1 BCU       0.050700
@<TRIPOS>BOND
     1     1     2 1   
     2     1    13 1   
     3     2     3 1   
     4     2    14 1   
     5     2    15 1   
     6     3     4 1   
     7     3    12 1   
     8     3    16 1   
     9     4     5 1   
    10     4    17 1   
    11     4    18 1   
    12     5     6 1   
    13     6     7 ar  
    14     6    11 ar  
    15     7     8 ar  
    16     7    19 1   
    17     8     9 ar  
    18     8    20 1   
    19     9    10 ar  
    20     9    21 1   
    21    10    11 ar  
    22    10    22 1   
    23    11    12 1   
    24    12    23 1   
    25    12    24 1   
@<TRIPOS>SUBSTRUCTURE
     1 BCU         1 TEMP              0 ****  ****    0 ROOT
