@<TRIPOS>MOLECULE
BCU
   24    25     1     0     0
SMALL
No Charge or Current Charge


@<TRIPOS>ATOM
      1 O12         -4.1240    -0.1080    -0.2830 oh         1 BCU      -0.661000
      2 C11         -3.1020     0.7830     0.1760 c3         1 BCU       0.168600
      3 C2          -1.6840     0.2670    -0.1860 c6         1 BCU      -0.103700
      4 C3          -1.3600    -1.0890     0.4820 c6         1 BCU       0.168600
      5 O4          -0.0670    -1.5750     0.0600 os         1 BCU      -0.342100
      6 C5           1.0030    -0.7060     0.0220 ca         1 BCU       0.141100
      7 C10          2.2960    -1.2370    -0.1110 ca         1 BCU      -0.142000
      8 C9           3.4100    -0.3820    -0.1600 ca         1 BCU      -0.079000
      9 C8           3.2280     1.0090    -0.0810 ca         1 BCU      -0.145000
     10 C7           1.9350     1.5460     0.0400 ca         1 BCU      -0.074000
     11 C6           0.8150     0.6940     0.0860 ca         1 BCU      -0.159300
     12 C1          -0.5890     1.2900     0.2030 c6         1 BCU      -0.023100
     13 H1          -4.9870     0.2990    -0.0440 ho         1 BCU       0.446000
     14 H2          -3.2390     1.7730    -0.2790 h1         1 BCU       0.020700
     15 H3          -3.1670     0.9060     1.2660 h1         1 BCU       0.020700
     16 H4          -1.6650     0.1290    -1.2760 hc         1 BCU       0.080700
     17 H5          -1.3540    -0.9720     1.5750 h1         1 BCU       0.060200
     18 H6          -2.1190    -1.8410     0.2260 h1         1 BCU       0.060200
     19 H7           2.4340    -2.3140    -0.1710 ha         1 BCU       0.127000
     20 H8           4.4120    -0.7970    -0.2580 ha         1 BCU       0.114000
     21 H9           4.0900     1.6710    -0.1180 ha         1 BCU       0.114000
     22 H10          1.8040     2.6250     0.0950 ha         1 BCU       0.107000
     23 H11         -0.6760     2.1840    -0.4290 hc         1 BCU       0.050700
     24 H12         -0.7440     1.6250     1.2390 hc         1 BCU       0.050700
@<TRIPOS>BOND
     1     1     2 1   
     2     1    13 1   
     3     2     3 1   
     4     2    14 1   
     5     2    15 1   
     6     3     4 1   
     7     3    12 1   
     8     3    16 1   
     9     4     5 1   
    10     4    17 1   
    11     4    18 1   
    12     5     6 1   
    13     6     7 ar  
    14     6    11 ar  
    15     7     8 ar  
    16     7    19 1   
    17     8     9 ar  
    18     8    20 1   
    19     9    10 ar  
    20     9    21 1   
    21    10    11 ar  
    22    10    22 1   
    23    11    12 1   
    24    12    23 1   
    25    12    24 1   
@<TRIPOS>SUBSTRUCTURE
     1 BCU         1 TEMP              0 ****  ****    0 ROOT
