@<TRIPOS>MOLECULE
BCV
   45    45     1     0     0
SMALL
abcg2


@<TRIPOS>ATOM
      1 N14         15.3240    35.8390     7.3120 n8         1 BCV      -0.993200
      2 C2          15.7230    36.4430     6.0330 c3         1 BCV       0.020500
      3 C1          17.2560    36.4850     5.7980 c          1 BCV       0.683000
      4 O19         17.9980    36.5090     6.8130 o          1 BCV      -0.744000
      5 O20         17.6380    36.5290     4.5990 o          1 BCV      -0.744000
      6 C3          15.1740    37.8720     5.9250 c3         1 BCV      -0.048400
      7 C4          13.6510    37.9460     5.8650 c3         1 BCV      -0.069400
      8 C7          13.1510    39.3940     5.7870 c3         1 BCV      -0.148400
      9 C10         11.6410    39.4620     5.8100 c          1 BCV       0.596100
     10 O15         10.9870    39.1820     6.8180 o          1 BCV      -0.606100
     11 N11         11.0490    39.8390     4.6580 ns         1 BCV      -0.496900
     12 C12          9.6150    39.8550     4.5040 c3         1 BCV       0.038700
     13 C16          9.2160    40.6510     3.2610 c3         1 BCV       0.080600
     14 S17          9.8300    39.8580     1.7140 sh         1 BCV      -0.415800
     15 C13          9.0250    38.4310     4.4440 c          1 BCV       0.584100
     16 O18          9.6800    37.4850     4.0060 o          1 BCV      -0.621100
     17 N29          7.7550    38.3560     4.8490 ns         1 BCV      -0.464900
     18 C30          6.9270    37.1590     4.8190 c3         1 BCV      -0.007300
     19 C31          5.9560    37.1900     6.0300 c          1 BCV       0.717000
     20 O42          5.6880    38.3230     6.5050 o          1 BCV      -0.729500
     21 O43          5.4970    36.0860     6.4020 o          1 BCV      -0.729500
     22 C32          6.1380    37.0800     3.5270 cx         1 BCV      -0.091700
     23 C37          5.7360    35.7490     2.9630 cx         1 BCV      -0.143400
     24 C33          6.7910    36.5740     2.2700 cx         1 BCV      -0.143400
     25 H141        15.9630    36.1980     8.0180 hn         1 BCV       0.378500
     26 H142        15.5150    34.8420     7.2750 hn         1 BCV       0.378500
     27 H2          15.2850    35.8460     5.2290 h1         1 BCV       0.043700
     28 H3C1        15.5960    38.3400     5.0320 hc         1 BCV       0.032700
     29 H3C2        15.5340    38.4470     6.7860 hc         1 BCV       0.032700
     30 H4C1        13.2240    37.4650     6.7450 hc         1 BCV       0.059200
     31 H4C2        13.2940    37.3930     4.9910 hc         1 BCV       0.059200
     32 H7C1        13.5430    39.8780     4.8900 hc         1 BCV       0.044200
     33 H7C2        13.5160    39.9510     6.6530 hc         1 BCV       0.044200
     34 H11         11.6140    39.9500     3.8310 hn         1 BCV       0.321500
     35 H12          9.1810    40.3670     5.3650 h1         1 BCV       0.080700
     36 H161         9.6450    41.6490     3.3210 h1         1 BCV       0.061200
     37 H162         8.1320    40.7280     3.2180 h1         1 BCV       0.061200
     38 H17          9.8290    40.9790     0.9760 hs         1 BCV       0.169800
     39 H29          7.3160    39.1470     5.3030 hn         1 BCV       0.331500
     40 H30          7.5770    36.2880     4.9020 h1         1 BCV       0.071700
     41 H32          5.4320    37.8940     3.4030 hc         1 BCV       0.061700
     42 H371         4.7620    35.6640     2.4990 hc         1 BCV       0.061950
     43 H372         6.0600    34.8660     3.4980 hc         1 BCV       0.061950
     44 H331         7.8190    36.2440     2.3440 hc         1 BCV       0.061950
     45 H332         6.5340    37.0560     1.3360 hc         1 BCV       0.061950
@<TRIPOS>BOND
     1     1     2 1   
     2     1    25 1   
     3     1    26 1   
     4     2     3 1   
     5     2     6 1   
     6     2    27 1   
     7     3     4 1   
     8     3     5 1   
     9     6     7 1   
    10     6    28 1   
    11     6    29 1   
    12     7     8 1   
    13     7    30 1   
    14     7    31 1   
    15     8     9 1   
    16     8    32 1   
    17     8    33 1   
    18     9    10 2   
    19     9    11 1   
    20    11    12 1   
    21    11    34 1   
    22    12    13 1   
    23    12    15 1   
    24    12    35 1   
    25    13    14 1   
    26    13    36 1   
    27    13    37 1   
    28    14    38 1   
    29    15    16 2   
    30    15    17 1   
    31    17    18 1   
    32    17    39 1   
    33    18    19 1   
    34    18    22 1   
    35    18    40 1   
    36    19    20 1   
    37    19    21 1   
    38    22    23 1   
    39    22    24 1   
    40    22    41 1   
    41    23    24 1   
    42    23    42 1   
    43    23    43 1   
    44    24    44 1   
    45    24    45 1   
@<TRIPOS>SUBSTRUCTURE
     1 BCV         1 TEMP              0 ****  ****    0 ROOT
