@<TRIPOS>MOLECULE
BCV
   45    45     1     0     0
SMALL
No Charge or Current Charge


@<TRIPOS>ATOM
      1 N14         16.5200    37.4820     8.0280 n8         1 BCV      -0.993200
      2 C2          16.2870    36.7320     6.7390 c3         1 BCV       0.020500
      3 C1          17.5610    36.0400     6.0990 c          1 BCV       0.683000
      4 O19         18.5830    36.7030     5.9680 o          1 BCV      -0.744000
      5 O20         17.5150    34.8390     5.8700 o          1 BCV      -0.744000
      6 C3          15.5840    37.6370     5.6890 c3         1 BCV      -0.048400
      7 C4          14.1650    38.1060     6.0930 c3         1 BCV      -0.069400
      8 C7          13.4730    38.9540     4.9990 c3         1 BCV      -0.148400
      9 C10         12.0710    39.4000     5.4320 c          1 BCV       0.596100
     10 O15         11.8860    40.2850     6.2560 o          1 BCV      -0.606100
     11 N11         11.0340    38.7510     4.8060 ns         1 BCV      -0.496900
     12 C12          9.5940    39.0420     5.0090 c3         1 BCV       0.038700
     13 C16          9.1910    40.4080     4.3940 c3         1 BCV       0.080600
     14 S17          9.5820    40.5840     2.5870 sh         1 BCV      -0.415800
     15 C13          8.7200    37.8850     4.4470 c          1 BCV       0.584100
     16 O18          9.1830    36.9570     3.7910 o          1 BCV      -0.621100
     17 N29          7.3760    37.9590     4.7560 ns         1 BCV      -0.464900
     18 C30          6.3400    37.0020     4.3060 c3         1 BCV      -0.007300
     19 C31          5.2670    36.7820     5.4200 c          1 BCV       0.717000
     20 O42          4.8190    37.7620     6.0020 o          1 BCV      -0.729500
     21 O43          4.9400    35.6350     5.6930 o          1 BCV      -0.729500
     22 C32          5.7070    37.4930     3.0040 cx         1 BCV      -0.091700
     23 C37          4.9920    36.5310     2.0830 cx         1 BCV      -0.143400
     24 C33          6.3080    37.1400     1.6620 cx         1 BCV      -0.143400
     25 H141        17.2690    38.1670     7.8670 hn         1 BCV       0.378500
     26 H142        16.9360    36.8410     8.7140 hn         1 BCV       0.378500
     27 H2          15.5890    35.9160     6.9740 h1         1 BCV       0.043700
     28 H3C1        15.5070    37.0770     4.7480 hc         1 BCV       0.032700
     29 H3C2        16.2140    38.5110     5.4800 hc         1 BCV       0.032700
     30 H4C1        14.2230    38.6950     7.0170 hc         1 BCV       0.059200
     31 H4C2        13.5440    37.2280     6.3150 hc         1 BCV       0.059200
     32 H7C1        13.4080    38.3520     4.0840 hc         1 BCV       0.044200
     33 H7C2        14.0840    39.8450     4.8130 hc         1 BCV       0.044200
     34 H11         11.2810    38.0300     4.1360 hn         1 BCV       0.321500
     35 H12          9.4000    39.0820     6.0890 h1         1 BCV       0.080700
     36 H161         9.7180    41.2090     4.9270 h1         1 BCV       0.061200
     37 H162         8.1160    40.5770     4.5330 h1         1 BCV       0.061200
     38 H17          9.1200    41.8500     2.4570 hs         1 BCV       0.169800
     39 H29          7.0770    38.7330     5.3390 hn         1 BCV       0.331500
     40 H30          6.8140    36.0280     4.1290 h1         1 BCV       0.071700
     41 H32          5.2680    38.4840     3.0990 hc         1 BCV       0.061700
     42 H371         4.0900    36.8820     1.5880 hc         1 BCV       0.061950
     43 H372         4.9850    35.4770     2.3500 hc         1 BCV       0.061950
     44 H331         7.1830    36.4940     1.6480 hc         1 BCV       0.061950
     45 H332         6.2920    37.9010     0.8860 hc         1 BCV       0.061950
@<TRIPOS>BOND
     1     1     2 1   
     2     1    25 1   
     3     1    26 1   
     4     2     3 1   
     5     2     6 1   
     6     2    27 1   
     7     3     4 1   
     8     3     5 1   
     9     6     7 1   
    10     6    28 1   
    11     6    29 1   
    12     7     8 1   
    13     7    30 1   
    14     7    31 1   
    15     8     9 1   
    16     8    32 1   
    17     8    33 1   
    18     9    10 2   
    19     9    11 1   
    20    11    12 1   
    21    11    34 1   
    22    12    13 1   
    23    12    15 1   
    24    12    35 1   
    25    13    14 1   
    26    13    36 1   
    27    13    37 1   
    28    14    38 1   
    29    15    16 2   
    30    15    17 1   
    31    17    18 1   
    32    17    39 1   
    33    18    19 1   
    34    18    22 1   
    35    18    40 1   
    36    19    20 1   
    37    19    21 1   
    38    22    23 1   
    39    22    24 1   
    40    22    41 1   
    41    23    24 1   
    42    23    42 1   
    43    23    43 1   
    44    24    44 1   
    45    24    45 1   
@<TRIPOS>SUBSTRUCTURE
     1 BCV         1 TEMP              0 ****  ****    0 ROOT
