@<TRIPOS>MOLECULE
BCW
   91    94     1     0     0
SMALL
bcc


@<TRIPOS>ATOM
      1 C13         -0.8770    -2.8960     2.0430 c6         1 BCW       0.081100
      2 C20          1.0890    -2.2980     3.5250 c3         1 BCW       0.145400
      3 C26          0.3630     2.8710     0.3670 c6         1 BCW       0.058700
      4 C28          3.1920     2.6820    -0.0930 c6         1 BCW       0.120100
      5 C01         -5.1120    -1.2880    -0.6610 c6         1 BCW       0.109100
      6 C02         -5.6560    -0.3750    -1.7610 c6         1 BCW       0.124100
      7 C03         -4.4850     0.3710    -2.3820 c6         1 BCW       0.161100
      8 C04         -3.7080     1.1220    -1.3040 c6         1 BCW       0.104100
      9 C05         -3.2770     0.1570    -0.1880 c6         1 BCW       0.304900
     10 O06         -4.3870    -0.5360     0.3050 os         1 BCW      -0.434600
     11 O08         -4.9590     1.2440    -3.3760 oh         1 BCW      -0.586800
     12 O09         -2.6240     1.7620    -1.9180 oh         1 BCW      -0.606800
     13 O10         -2.2920    -0.6850    -0.6970 os         1 BCW      -0.386600
     14 C11         -1.3660    -1.2900     0.1740 c6         1 BCW       0.133100
     15 C12         -1.9790    -2.2610     1.1870 c6         1 BCW       0.132100
     16 C14         -0.0470    -1.7780     2.6730 c6         1 BCW       0.123100
     17 O15          0.4950    -0.9640     1.6600 os         1 BCW      -0.415600
     18 C16         -0.4740    -0.2800     0.9190 c6         1 BCW       0.326900
     19 O17         -6.5860     0.5670    -1.2810 oh         1 BCW      -0.575800
     20 O18         -2.7140    -3.2260     0.4840 oh         1 BCW      -0.561800
     21 O19         -0.1070    -3.7420     1.2240 oh         1 BCW      -0.572800
     22 O21          1.6750    -1.2200     4.2110 oh         1 BCW      -0.583800
     23 O22          0.1620     0.5030    -0.0250 os         1 BCW      -0.371600
     24 C23          1.0450     1.5020     0.4430 c6         1 BCW       0.140100
     25 O24          2.4540     3.8820    -0.2380 os         1 BCW      -0.411600
     26 C25          1.3590     4.0070     0.6190 c6         1 BCW       0.322900
     27 C27          2.2980     1.4820    -0.4390 c6         1 BCW       0.127100
     28 O29          1.7160     3.9740     1.9620 oh         1 BCW      -0.624800
     29 N30         -0.7340     2.9620     1.3040 ns         1 BCW      -0.554900
     30 C31         -1.9400     3.4740     1.0240 c          1 BCW       0.670100
     31 C32         -2.8730     3.6300     2.1940 c3         1 BCW      -0.183100
     32 O33         -2.2860     3.8000    -0.1120 o          1 BCW      -0.634100
     33 O34          2.9870     0.2780    -0.2010 os         1 BCW      -0.412600
     34 C35          3.5270    -0.3890    -1.3030 c6         1 BCW       0.322900
     35 O36          2.5770    -1.1000    -2.0320 os         1 BCW      -0.413600
     36 C37          1.9700    -2.1960    -1.3510 c6         1 BCW       0.109100
     37 C38          3.0110    -3.2090    -0.8770 c6         1 BCW       0.124100
     38 C39          4.0200    -2.4790    -0.0040 c6         1 BCW       0.155100
     39 C40          4.6310    -1.3230    -0.7910 c6         1 BCW       0.089100
     40 O41          5.5490    -0.6490     0.0380 oh         1 BCW      -0.591800
     41 O42          4.9990    -3.3860     0.4350 oh         1 BCW      -0.586800
     42 O43          3.7020    -3.8350    -1.9320 oh         1 BCW      -0.583800
     43 C44          0.9480    -2.7970    -2.2940 c3         1 BCW      -0.097100
     44 C45          4.4050     2.8050    -0.9940 c3         1 BCW       0.146400
     45 O46          5.1490     3.9280    -0.5870 oh         1 BCW      -0.584800
     46 H13         -1.3610    -3.4630     2.8520 h1         1 BCW       0.033700
     47 H20          0.6780    -3.0450     4.2160 h1         1 BCW       0.027700
     48 H20A         1.8180    -2.8130     2.8860 h1         1 BCW       0.027700
     49 H26         -0.0350     3.0010    -0.6400 h1         1 BCW       0.110700
     50 H28          3.5460     2.5670     0.9410 h1         1 BCW       0.076700
     51 H01         -4.4510    -2.0180    -1.1410 h1         1 BCW       0.067700
     52 H02         -6.1110    -1.0180    -2.5290 h1         1 BCW       0.045700
     53 H03         -3.8200    -0.3880    -2.8220 h1         1 BCW       0.055700
     54 H04         -4.3860     1.8520    -0.8410 h1         1 BCW       0.070700
     55 H05         -2.9050     0.7280     0.6710 h2         1 BCW       0.053700
     56 HO08        -4.2090     1.7730    -3.6690 ho         1 BCW       0.423000
     57 HO09        -2.3720     2.5240    -1.3680 ho         1 BCW       0.442000
     58 H11         -0.7110    -1.8600    -0.4890 h1         1 BCW       0.119700
     59 H12         -2.6250    -1.7010     1.8780 h1         1 BCW       0.042700
     60 H14         -0.7210    -1.1900     3.3190 h1         1 BCW       0.048700
     61 H16         -1.0710     0.3360     1.6180 h2         1 BCW       0.014700
     62 HO17        -7.3870     0.1010    -1.0230 ho         1 BCW       0.399000
     63 HO18        -3.3090    -3.6630     1.0990 ho         1 BCW       0.402000
     64 HO19         0.4060    -4.3360     1.7800 ho         1 BCW       0.403000
     65 HO21         2.4340    -1.5560     4.6960 ho         1 BCW       0.410000
     66 H23          1.3560     1.2980     1.4750 h1         1 BCW       0.085700
     67 H25          0.8940     4.9630     0.3520 h2         1 BCW       0.077700
     68 H27          1.9810     1.5610    -1.4890 h1         1 BCW       0.072700
     69 HN30        -0.5090     2.8090     2.2760 hn         1 BCW       0.324500
     70 H32         -3.0350     4.6920     2.3820 hc         1 BCW       0.066367
     71 H32A        -3.8400     3.1950     1.9490 hc         1 BCW       0.066367
     72 H32B        -2.5040     3.1730     3.1100 hc         1 BCW       0.066367
     73 H35          3.9550     0.3230    -2.0210 h2         1 BCW       0.058700
     74 H37          1.4600    -1.8390    -0.4550 h1         1 BCW       0.076700
     75 H38          2.4800    -3.9460    -0.2570 h1         1 BCW       0.047700
     76 H39          3.4600    -2.0670     0.8500 h1         1 BCW       0.062700
     77 H40          5.1380    -1.7320    -1.6740 h1         1 BCW       0.073700
     78 HO41         6.2780    -0.3310    -0.5010 ho         1 BCW       0.404000
     79 HO42         5.6460    -2.8890     0.9460 ho         1 BCW       0.414000
     80 HO43         3.0910    -4.4100    -2.4000 ho         1 BCW       0.405000
     81 H44          1.4030    -3.1720    -3.2130 hc         1 BCW       0.050700
     82 H44A         0.4290    -3.6210    -1.8020 hc         1 BCW       0.050700
     83 H44B         0.1990    -2.0570    -2.5760 hc         1 BCW       0.050700
     84 H45          4.9970     1.8890    -0.9060 h1         1 BCW       0.027700
     85 H45A         4.0780     2.8890    -2.0400 h1         1 BCW       0.027700
     86 HO46         5.9630     3.9420    -1.0980 ho         1 BCW       0.402000
     87 H451         2.1220     4.8120     2.2070 ho         1 BCW       0.425000
     88 C07         -6.1940    -2.0430     0.0810 c3         1 BCW      -0.089100
     89 H07         -6.8030    -2.6160    -0.6180 hc         1 BCW       0.041033
     90 H07A        -5.7510    -2.7450     0.7870 hc         1 BCW       0.041033
     91 H07B        -6.8500    -1.3760     0.6430 hc         1 BCW       0.041033
@<TRIPOS>BOND
     1     1    15 1   
     2     1    16 1   
     3     1    21 1   
     4     1    46 1   
     5     2    16 1   
     6     2    22 1   
     7     2    47 1   
     8     2    48 1   
     9     3    24 1   
    10     3    26 1   
    11     3    29 1   
    12     3    49 1   
    13     4    25 1   
    14     4    27 1   
    15     4    44 1   
    16     4    50 1   
    17     5     6 1   
    18     5    10 1   
    19     5    51 1   
    20     5    88 1   
    21     6     7 1   
    22     6    19 1   
    23     6    52 1   
    24     7     8 1   
    25     7    11 1   
    26     7    53 1   
    27     8     9 1   
    28     8    12 1   
    29     8    54 1   
    30     9    10 1   
    31     9    13 1   
    32     9    55 1   
    33    11    56 1   
    34    12    57 1   
    35    13    14 1   
    36    14    15 1   
    37    14    18 1   
    38    14    58 1   
    39    15    20 1   
    40    15    59 1   
    41    16    17 1   
    42    16    60 1   
    43    17    18 1   
    44    18    23 1   
    45    18    61 1   
    46    19    62 1   
    47    20    63 1   
    48    21    64 1   
    49    22    65 1   
    50    23    24 1   
    51    24    27 1   
    52    24    66 1   
    53    25    26 1   
    54    26    28 1   
    55    26    67 1   
    56    27    33 1   
    57    27    68 1   
    58    28    87 1   
    59    29    30 1   
    60    29    69 1   
    61    30    31 1   
    62    30    32 2   
    63    31    70 1   
    64    31    71 1   
    65    31    72 1   
    66    33    34 1   
    67    34    35 1   
    68    34    39 1   
    69    34    73 1   
    70    35    36 1   
    71    36    37 1   
    72    36    43 1   
    73    36    74 1   
    74    37    38 1   
    75    37    42 1   
    76    37    75 1   
    77    38    39 1   
    78    38    41 1   
    79    38    76 1   
    80    39    40 1   
    81    39    77 1   
    82    40    78 1   
    83    41    79 1   
    84    42    80 1   
    85    43    81 1   
    86    43    82 1   
    87    43    83 1   
    88    44    45 1   
    89    44    84 1   
    90    44    85 1   
    91    45    86 1   
    92    88    89 1   
    93    88    90 1   
    94    88    91 1   
@<TRIPOS>SUBSTRUCTURE
     1 BCW         1 TEMP              0 ****  ****    0 ROOT
