@<TRIPOS>MOLECULE
BCW
   91    94     1     0     0
SMALL
No Charge or Current Charge


@<TRIPOS>ATOM
      1 C13         -1.0920    -2.8610     2.2030 c6         1 BCW       0.104300
      2 C20          0.7290    -2.1380     3.9290 c3         1 BCW       0.168600
      3 C26          0.4360     2.8690     0.3460 c6         1 BCW       0.058700
      4 C28          3.3620     2.7290    -0.0690 c6         1 BCW       0.143300
      5 C01         -5.2140    -1.3430    -0.5840 c6         1 BCW       0.132300
      6 C02         -5.8830    -0.4870    -1.7100 c6         1 BCW       0.147300
      7 C03         -4.7330     0.2760    -2.4490 c6         1 BCW       0.184300
      8 C04         -3.9320     1.1460    -1.4350 c6         1 BCW       0.127300
      9 C05         -3.3760     0.2300    -0.2810 c6         1 BCW       0.351300
     10 O06         -4.4660    -0.4990     0.3280 os         1 BCW      -0.481000
     11 O08         -5.2200     1.0990    -3.5270 oh         1 BCW      -0.649000
     12 O09         -2.9000     1.9010    -2.1230 oh         1 BCW      -0.729000
     13 O10         -2.3710    -0.6940    -0.7710 os         1 BCW      -0.433000
     14 C11         -1.4430    -1.2850     0.1990 c6         1 BCW       0.156300
     15 C12         -2.1300    -2.2720     1.2090 c6         1 BCW       0.155300
     16 C14         -0.3220    -1.6760     2.8660 c6         1 BCW       0.146300
     17 O15          0.3530    -0.9030     1.8490 os         1 BCW      -0.462000
     18 C16         -0.5290    -0.2350     0.9240 c6         1 BCW       0.373300
     19 O17         -6.8630     0.4370    -1.1700 oh         1 BCW      -0.698000
     20 O18         -2.7540    -3.3750     0.5290 oh         1 BCW      -0.684000
     21 O19         -0.2230    -3.7690     1.4830 oh         1 BCW      -0.695000
     22 O21          1.3900    -1.0380     4.5830 oh         1 BCW      -0.706000
     23 O22          0.3030     0.4260    -0.0500 os         1 BCW      -0.418000
     24 C23          1.1680     1.4920     0.4300 c6         1 BCW       0.163300
     25 O24          2.5750     3.9390    -0.2400 os         1 BCW      -0.458000
     26 C25          1.4180     4.0520     0.5970 c6         1 BCW       0.369300
     27 C27          2.4920     1.4750    -0.3990 c6         1 BCW       0.150300
     28 O29          1.8650     4.0950     1.9510 oh         1 BCW      -0.687000
     29 N30         -0.7170     2.9600     1.2770 ns         1 BCW      -0.487900
     30 C31         -1.9780     3.3780     0.9410 c          1 BCW       0.603100
     31 C32         -2.9510     3.4970     2.1000 c3         1 BCW      -0.183100
     32 O33         -2.2980     3.6040    -0.2160 o          1 BCW      -0.634100
     33 O34          3.2160     0.2460    -0.1180 os         1 BCW      -0.459000
     34 C35          3.8750    -0.3930    -1.2360 c6         1 BCW       0.369300
     35 O36          2.8760    -0.9780    -2.1040 os         1 BCW      -0.460000
     36 C37          2.1160    -2.0590    -1.5100 c6         1 BCW       0.132300
     37 C38          3.0550    -3.2460    -1.1170 c6         1 BCW       0.147300
     38 C39          4.1060    -2.6770    -0.1070 c6         1 BCW       0.178300
     39 C40          4.8920    -1.4940    -0.7500 c6         1 BCW       0.112300
     40 O41          5.8830    -0.9930     0.1920 oh         1 BCW      -0.714000
     41 O42          5.0270    -3.6830     0.3570 oh         1 BCW      -0.649000
     42 O43          3.7030    -3.8240    -2.2790 oh         1 BCW      -0.706000
     43 C44          1.0110    -2.4450    -2.5260 c3         1 BCW      -0.097100
     44 C45          4.6430     2.8630    -0.9560 c3         1 BCW       0.169600
     45 O46          5.3770     4.0810    -0.7180 oh         1 BCW      -0.707000
     46 H13         -1.6350    -3.4070     2.9890 h1         1 BCW       0.033700
     47 H20          0.2120    -2.7580     4.6740 h1         1 BCW       0.027700
     48 H20A         1.4720    -2.7750     3.4300 h1         1 BCW       0.027700
     49 H26          0.0680     2.9780    -0.6840 h1         1 BCW       0.110700
     50 H28          3.6980     2.6590     0.9750 h1         1 BCW       0.076700
     51 H01         -4.5270    -2.0650    -1.0510 h1         1 BCW       0.067700
     52 H02         -6.3640    -1.1700    -2.4270 h1         1 BCW       0.045700
     53 H03         -4.0440    -0.4780    -2.8600 h1         1 BCW       0.055700
     54 H04         -4.6380     1.8500    -0.9680 h1         1 BCW       0.070700
     55 H05         -2.9260     0.8860     0.4770 h2         1 BCW       0.053700
     56 HO08        -4.5120     1.7730    -3.6440 ho         1 BCW       0.462000
     57 HO09        -2.6020     2.6050    -1.4720 ho         1 BCW       0.541000
     58 H11         -0.7500    -1.9010    -0.3860 h1         1 BCW       0.119700
     59 H12         -2.8750    -1.7190     1.7980 h1         1 BCW       0.042700
     60 H14         -1.0440    -1.0260     3.3810 h1         1 BCW       0.048700
     61 H16         -1.1460     0.4930     1.4670 h2         1 BCW       0.014700
     62 HO17        -7.5510    -0.1050    -0.7230 ho         1 BCW       0.498000
     63 HO18        -2.0370    -4.0520     0.4890 ho         1 BCW       0.501000
     64 HO19         0.2920    -4.2830     2.1470 ho         1 BCW       0.502000
     65 HO21         2.0820    -1.4240     5.1690 ho         1 BCW       0.509000
     66 H23          1.4410     1.3040     1.4790 h1         1 BCW       0.085700
     67 H25          0.8950     4.9920     0.3560 h2         1 BCW       0.077700
     68 H27          2.2200     1.5030    -1.4640 h1         1 BCW       0.072700
     69 HN30        -0.5330     2.8390     2.2670 hn         1 BCW       0.324500
     70 H32         -2.5350     4.1850     2.8450 hc         1 BCW       0.066367
     71 H32A        -3.9520     3.8050     1.7780 hc         1 BCW       0.066367
     72 H32B        -2.9760     2.5470     2.6460 hc         1 BCW       0.066367
     73 H35          4.4360     0.3570    -1.8100 h2         1 BCW       0.058700
     74 H37          1.6210    -1.6930    -0.5990 h1         1 BCW       0.076700
     75 H38          2.4540    -4.0080    -0.5990 h1         1 BCW       0.047700
     76 H39          3.5510    -2.2770     0.7560 h1         1 BCW       0.062700
     77 H40          5.4010    -1.8760    -1.6470 h1         1 BCW       0.073700
     78 HO41         6.4420    -0.3350    -0.2830 ho         1 BCW       0.503000
     79 HO42         5.8080    -3.1660     0.6580 ho         1 BCW       0.453000
     80 HO43         2.9980    -4.2390    -2.8260 ho         1 BCW       0.504000
     81 H44          1.4320    -2.7290    -3.4980 hc         1 BCW       0.050700
     82 H44A         0.4120    -3.2860    -2.1570 hc         1 BCW       0.050700
     83 H44B         0.3290    -1.6030    -2.6940 hc         1 BCW       0.050700
     84 H45          5.2930     2.0030    -0.7520 h1         1 BCW       0.027700
     85 H45A         4.3390     2.8070    -2.0100 h1         1 BCW       0.027700
     86 HO46         6.0990     4.1190    -1.3880 ho         1 BCW       0.501000
     87 H451         2.5370     4.8090     1.9700 ho         1 BCW       0.464000
     88 C07         -6.2260    -2.1490     0.2700 c3         1 BCW      -0.089100
     89 H07         -6.8490    -2.7930    -0.3620 hc         1 BCW       0.041033
     90 H07A        -5.7030    -2.7970     0.9830 hc         1 BCW       0.041033
     91 H07B        -6.8900    -1.4930     0.8460 hc         1 BCW       0.041033
@<TRIPOS>BOND
     1     1    15 1   
     2     1    16 1   
     3     1    21 1   
     4     1    46 1   
     5     2    16 1   
     6     2    22 1   
     7     2    47 1   
     8     2    48 1   
     9     3    24 1   
    10     3    26 1   
    11     3    29 1   
    12     3    49 1   
    13     4    25 1   
    14     4    27 1   
    15     4    44 1   
    16     4    50 1   
    17     5     6 1   
    18     5    10 1   
    19     5    51 1   
    20     5    88 1   
    21     6     7 1   
    22     6    19 1   
    23     6    52 1   
    24     7     8 1   
    25     7    11 1   
    26     7    53 1   
    27     8     9 1   
    28     8    12 1   
    29     8    54 1   
    30     9    10 1   
    31     9    13 1   
    32     9    55 1   
    33    11    56 1   
    34    12    57 1   
    35    13    14 1   
    36    14    15 1   
    37    14    18 1   
    38    14    58 1   
    39    15    20 1   
    40    15    59 1   
    41    16    17 1   
    42    16    60 1   
    43    17    18 1   
    44    18    23 1   
    45    18    61 1   
    46    19    62 1   
    47    20    63 1   
    48    21    64 1   
    49    22    65 1   
    50    23    24 1   
    51    24    27 1   
    52    24    66 1   
    53    25    26 1   
    54    26    28 1   
    55    26    67 1   
    56    27    33 1   
    57    27    68 1   
    58    28    87 1   
    59    29    30 1   
    60    29    69 1   
    61    30    31 1   
    62    30    32 2   
    63    31    70 1   
    64    31    71 1   
    65    31    72 1   
    66    33    34 1   
    67    34    35 1   
    68    34    39 1   
    69    34    73 1   
    70    35    36 1   
    71    36    37 1   
    72    36    43 1   
    73    36    74 1   
    74    37    38 1   
    75    37    42 1   
    76    37    75 1   
    77    38    39 1   
    78    38    41 1   
    79    38    76 1   
    80    39    40 1   
    81    39    77 1   
    82    40    78 1   
    83    41    79 1   
    84    42    80 1   
    85    43    81 1   
    86    43    82 1   
    87    43    83 1   
    88    44    45 1   
    89    44    84 1   
    90    44    85 1   
    91    45    86 1   
    92    88    89 1   
    93    88    90 1   
    94    88    91 1   
@<TRIPOS>SUBSTRUCTURE
     1 BCW         1 TEMP              0 ****  ****    0 ROOT
