@<TRIPOS>MOLECULE
BCX
   16    15     1     0     0
SMALL
No Charge or Current Charge


@<TRIPOS>ATOM
      1 C            2.2570    -0.1060     0.2830 c          1 BCX       0.943600
      2 N           -0.3130     1.0490    -1.0910 n8         1 BCX      -0.846800
      3 CA          -0.2460     0.0310    -0.0260 c3         1 BCX       0.183500
      4 CB          -1.5590    -0.7950    -0.0180 c3         1 BCX       0.009700
      5 CC           1.0040    -0.8620    -0.1850 c3         1 BCX      -0.199400
      6 SG          -3.1070     0.2160     0.1720 sh         1 BCX      -0.458900
      7 HA          -0.1900     0.5500     0.9440 h1         1 BCX       0.090700
      8 HB          -1.6360    -1.3660    -0.9540 h1         1 BCX       0.049200
      9 HBA         -1.5250    -1.5160     0.8100 h1         1 BCX       0.049200
     10 HC1          1.0760    -1.1510    -1.2410 hc         1 BCX       0.015200
     11 HC2          0.8300    -1.7130     0.4860 hc         1 BCX       0.015200
     12 O            2.5170    -0.1030     1.4810 o          1 BCX      -0.841300
     13 OXT          2.9610     0.4550    -0.5490 o          1 BCX      -0.841300
     14 HG          -3.9740    -0.8260     0.1350 hs         1 BCX       0.190800
     15 H2          -0.2750     0.5770    -1.9980 hn         1 BCX       0.320300
     16 H           -1.2500     1.4640    -1.0630 hn         1 BCX       0.320300
@<TRIPOS>BOND
     1     1     5 1   
     2     1    12 1   
     3     1    13 1   
     4     2     3 1   
     5     2    15 1   
     6     2    16 1   
     7     3     4 1   
     8     3     5 1   
     9     3     7 1   
    10     4     6 1   
    11     4     8 1   
    12     4     9 1   
    13     5    10 1   
    14     5    11 1   
    15     6    14 1   
@<TRIPOS>SUBSTRUCTURE
     1 BCX         1 TEMP              0 ****  ****    0 ROOT
