@<TRIPOS>MOLECULE
BCX
   16    15     1     0     0
SMALL
bcc


@<TRIPOS>ATOM
      1 C            2.2430    -0.0630     0.1320 c          1 BCX       0.943600
      2 N           -0.2660     1.1090    -0.8910 n8         1 BCX      -0.846800
      3 CA          -0.3050     0.0020     0.0510 c3         1 BCX       0.183500
      4 CB          -1.5480    -0.8860    -0.0670 c3         1 BCX       0.009700
      5 CC           0.9460    -0.8490    -0.1290 c3         1 BCX      -0.199400
      6 SG          -3.0510     0.0900     0.2930 sh         1 BCX      -0.458900
      7 HA          -0.2810     0.4240     1.0600 h1         1 BCX       0.090700
      8 HB          -1.6220    -1.2950    -1.0760 h1         1 BCX       0.049200
      9 HBA         -1.4910    -1.7170     0.6370 h1         1 BCX       0.049200
     10 HC1          0.9500    -1.2800    -1.1360 hc         1 BCX       0.015200
     11 HC2          0.9060    -1.6920     0.5690 hc         1 BCX       0.015200
     12 O            2.3100     0.5450     1.2200 o          1 BCX      -0.841300
     13 OXT          3.1310    -0.1130    -0.7420 o          1 BCX      -0.841300
     14 HG          -3.9550    -0.8090    -0.1110 hs         1 BCX       0.190800
     15 H2          -0.3070     0.7450    -1.8360 hn         1 BCX       0.320300
     16 H           -1.0890     1.6920    -0.7870 hn         1 BCX       0.320300
@<TRIPOS>BOND
     1     1     5 1   
     2     1    12 1   
     3     1    13 1   
     4     2     3 1   
     5     2    15 1   
     6     2    16 1   
     7     3     4 1   
     8     3     5 1   
     9     3     7 1   
    10     4     6 1   
    11     4     8 1   
    12     4     9 1   
    13     5    10 1   
    14     5    11 1   
    15     6    14 1   
@<TRIPOS>SUBSTRUCTURE
     1 BCX         1 TEMP              0 ****  ****    0 ROOT
