@<TRIPOS>MOLECULE
BCY
   29    30     1     0     0
SMALL
abcg2


@<TRIPOS>ATOM
      1 N            0.7030    -1.4110    -2.3710 n8         1 BCY      -0.999200
      2 N2          -0.2010     0.2760     0.4030 n          1 BCY      -0.299200
      3 N3          -1.5940     0.3720     0.1430 n3         1 BCY      -0.417600
      4 CB           1.2700     0.8950    -2.8170 c3         1 BCY      -0.077100
      5 C1           0.7820     0.1520    -0.4960 c          1 BCY       0.521000
      6 C2           0.4110    -0.0370    -1.9710 c6         1 BCY       0.126200
      7 C3          -1.0710     0.2570    -2.2040 c6         1 BCY      -0.075400
      8 C4          -1.9340    -0.3020    -1.0910 c6         1 BCY       0.128800
      9 C6          -2.1860    -0.2150     1.3360 c5         1 BCY       0.123800
     10 C7          -1.3250     0.3530     2.4530 c5         1 BCY      -0.079400
     11 C8           0.0810     0.4070     1.8170 c5         1 BCY      -0.009300
     12 C9           0.9320    -0.7530     2.2800 c          1 BCY       0.581900
     13 O2           1.7330    -0.6750     3.1740 o          1 BCY      -0.495100
     14 HN1          0.1430    -2.0720    -1.8450 hn         1 BCY       0.407500
     15 HN2          1.6700    -1.6330    -2.1640 hn         1 BCY       0.407500
     16 HB1          2.3310     0.6750    -2.7010 hc         1 BCY       0.051033
     17 HB2          1.0100     0.7730    -3.8680 hc         1 BCY       0.051033
     18 HB3          1.1090     1.9390    -2.5460 hc         1 BCY       0.051033
     19 H31         -1.2310     1.3370    -2.2630 hc         1 BCY       0.071200
     20 H32         -1.3660    -0.1670    -3.1650 hc         1 BCY       0.071200
     21 H41         -2.9890    -0.1120    -1.2860 h1         1 BCY       0.050200
     22 H42         -1.8130    -1.3930    -0.9980 h1         1 BCY       0.050200
     23 H61         -3.2320     0.0770     1.4130 h1         1 BCY       0.056200
     24 H62         -2.1300    -1.3130     1.3180 h1         1 BCY       0.056200
     25 H71         -1.6410     1.3610     2.7160 hc         1 BCY       0.067700
     26 H72         -1.3600    -0.2560     3.3550 hc         1 BCY       0.067700
     27 H8           0.5900     1.3450     2.0500 h1         1 BCY       0.097700
     28 H9           0.7060    -1.7140     1.7820 h4         1 BCY      -0.014800
     29 O1           1.9520     0.1330    -0.1140 o          1 BCY      -0.570000
@<TRIPOS>BOND
     1     1     6 1   
     2     1    14 1   
     3     1    15 1   
     4     2     3 1   
     5     2     5 1   
     6     2    11 1   
     7     3     8 1   
     8     3     9 1   
     9     4     6 1   
    10     4    16 1   
    11     4    17 1   
    12     4    18 1   
    13     5     6 1   
    14     5    29 2   
    15     6     7 1   
    16     7     8 1   
    17     7    19 1   
    18     7    20 1   
    19     8    21 1   
    20     8    22 1   
    21     9    10 1   
    22     9    23 1   
    23     9    24 1   
    24    10    11 1   
    25    10    25 1   
    26    10    26 1   
    27    11    12 1   
    28    11    27 1   
    29    12    13 2   
    30    12    28 1   
@<TRIPOS>SUBSTRUCTURE
     1 BCY         1 TEMP              0 ****  ****    0 ROOT
