@<TRIPOS>MOLECULE
BCY
   29    30     1     0     0
SMALL
No Charge or Current Charge


@<TRIPOS>ATOM
      1 N            0.7760    -1.3880    -2.4940 n8         1 BCY      -0.999200
      2 N2          -0.1780     0.2920     0.4670 n          1 BCY      -0.299200
      3 N3          -1.5620     0.3250     0.1440 n3         1 BCY      -0.417600
      4 CB           1.2410     0.9860    -2.9210 c3         1 BCY      -0.077100
      5 C1           0.8500     0.1880    -0.5150 c          1 BCY       0.521000
      6 C2           0.4240    -0.0010    -2.0370 c6         1 BCY       0.126200
      7 C3          -1.1030     0.2130    -2.2570 c6         1 BCY      -0.075400
      8 C4          -1.9280    -0.3810    -1.1000 c6         1 BCY       0.128800
      9 C6          -2.1760    -0.2120     1.3800 c5         1 BCY       0.123800
     10 C7          -1.3320     0.5010     2.4760 c5         1 BCY      -0.079400
     11 C8           0.1210     0.3530     1.9190 c5         1 BCY      -0.009300
     12 C9           0.7820    -0.9320     2.4810 c          1 BCY       0.581900
     13 O2           1.8050    -0.9730     3.1580 o          1 BCY      -0.495100
     14 HN1          0.3330    -2.0700    -1.8680 hn         1 BCY       0.407500
     15 HN2          1.7790    -1.5380    -2.3260 hn         1 BCY       0.407500
     16 HB1          2.3200     0.8040    -2.8440 hc         1 BCY       0.051033
     17 HB2          0.9660     0.8990    -3.9790 hc         1 BCY       0.051033
     18 HB3          1.0630     2.0250    -2.6180 hc         1 BCY       0.051033
     19 H31         -1.3240     1.2870    -2.3250 hc         1 BCY       0.071200
     20 H32         -1.4240    -0.2240    -3.2130 hc         1 BCY       0.071200
     21 H41         -3.0000    -0.2540    -1.3070 h1         1 BCY       0.050200
     22 H42         -1.7310    -1.4590    -1.0130 h1         1 BCY       0.050200
     23 H61         -3.2460     0.0250     1.4520 h1         1 BCY       0.056200
     24 H62         -2.0620    -1.3040     1.4430 h1         1 BCY       0.056200
     25 H71         -1.6150     1.5570     2.5480 hc         1 BCY       0.067700
     26 H72         -1.4660     0.0620     3.4720 hc         1 BCY       0.067700
     27 H8           0.7550     1.2110     2.1790 h1         1 BCY       0.097700
     28 H9           0.2490    -1.8730     2.2190 h4         1 BCY      -0.014800
     29 O1           2.0320     0.1810    -0.1790 o          1 BCY      -0.570000
@<TRIPOS>BOND
     1     1     6 1   
     2     1    14 1   
     3     1    15 1   
     4     2     3 1   
     5     2     5 1   
     6     2    11 1   
     7     3     8 1   
     8     3     9 1   
     9     4     6 1   
    10     4    16 1   
    11     4    17 1   
    12     4    18 1   
    13     5     6 1   
    14     5    29 2   
    15     6     7 1   
    16     7     8 1   
    17     7    19 1   
    18     7    20 1   
    19     8    21 1   
    20     8    22 1   
    21     9    10 1   
    22     9    23 1   
    23     9    24 1   
    24    10    11 1   
    25    10    25 1   
    26    10    26 1   
    27    11    12 1   
    28    11    27 1   
    29    12    13 2   
    30    12    28 1   
@<TRIPOS>SUBSTRUCTURE
     1 BCY         1 TEMP              0 ****  ****    0 ROOT
