@<TRIPOS>MOLECULE
BCZ
   50    50     1     0     0
SMALL
abcg2


@<TRIPOS>ATOM
      1 C2          24.7970    16.4320    63.2690 c5         1 BCZ       0.254500
      2 N25         24.2460    15.8200    62.0780 nu         1 BCZ      -0.909400
      3 C26         23.7520    14.5520    62.0540 c2         1 BCZ       0.797100
      4 N30         23.8270    13.7740    63.0860 n2         1 BCZ      -0.894100
      5 N27         23.1500    14.2100    60.8480 nv         1 BCZ      -1.069200
      6 C3          25.7840    17.5700    62.9220 c5         1 BCZ      -0.088700
      7 C10         27.1960    17.1040    62.5420 c3         1 BCZ       0.123700
      8 C24         28.2350    18.2420    62.4560 c3         1 BCZ      -0.066700
      9 C37         27.9110    19.2590    61.3490 c3         1 BCZ      -0.072900
     10 C38         28.5920    20.6120    61.5470 c3         1 BCZ      -0.088600
     11 C36         29.6590    17.6890    62.3030 c3         1 BCZ      -0.072900
     12 C39         30.1660    16.8990    63.5100 c3         1 BCZ      -0.088600
     13 N11         27.1460    16.3550    61.2900 ns         1 BCZ      -0.487900
     14 C13         27.2980    15.0240    61.1820 c          1 BCZ       0.597100
     15 C15         27.0210    14.4430    59.8140 c3         1 BCZ      -0.176100
     16 O14         27.6310    14.2970    62.1240 o          1 BCZ      -0.621100
     17 C4          25.7010    18.4950    64.1330 c5         1 BCZ       0.181300
     18 O9          26.4520    17.8960    65.2030 oh         1 BCZ      -0.693000
     19 C5          24.1970    18.5270    64.4530 c5         1 BCZ      -0.226700
     20 C6          23.5050    19.5920    63.5630 c          1 BCZ       0.710000
     21 O8          22.8400    19.2080    62.5690 o          1 BCZ      -0.735000
     22 O7          23.6930    20.7890    63.9060 o          1 BCZ      -0.735000
     23 C1          23.7470    17.0760    64.2200 c5         1 BCZ      -0.069400
     24 H21         25.3290    15.6450    63.7980 h1         1 BCZ       0.082700
     25 H251        23.9400    16.4450    61.3490 hn         1 BCZ       0.485000
     26 H301        23.4830    12.8480    62.8460 hn         1 BCZ       0.352400
     27 H271        23.0290    13.2180    60.7100 hn         1 BCZ       0.437000
     28 H272        23.5240    14.6660    60.0270 hn         1 BCZ       0.437000
     29 H31         25.3560    18.1280    62.0850 hc         1 BCZ       0.072700
     30 H101        27.5250    16.3950    63.2970 h1         1 BCZ       0.095700
     31 H241        28.1880    18.7640    63.4160 hc         1 BCZ       0.069700
     32 H371        28.1990    18.8400    60.3790 hc         1 BCZ       0.034700
     33 H372        26.8330    19.4250    61.3040 hc         1 BCZ       0.034700
     34 H381        28.3350    21.3010    60.7390 hc         1 BCZ       0.030700
     35 H382        28.2740    21.0670    62.4890 hc         1 BCZ       0.030700
     36 H383        29.6800    20.5230    61.5700 hc         1 BCZ       0.030700
     37 H361        29.7020    17.0640    61.4060 hc         1 BCZ       0.034700
     38 H362        30.3380    18.5260    62.1240 hc         1 BCZ       0.034700
     39 H391        31.2090    16.6050    63.3700 hc         1 BCZ       0.030700
     40 H392        30.1080    17.5000    64.4210 hc         1 BCZ       0.030700
     41 H393        29.5880    15.9890    63.6730 hc         1 BCZ       0.030700
     42 H111        26.8030    16.8440    60.4780 hn         1 BCZ       0.297500
     43 H151        26.1050    13.8520    59.8740 hc         1 BCZ       0.048367
     44 H152        26.8970    15.2050    59.0450 hc         1 BCZ       0.048367
     45 H153        27.8360    13.7740    59.5360 hc         1 BCZ       0.048367
     46 H41         26.0920    19.4930    63.9260 h1         1 BCZ       0.055700
     47 HO91        26.3340    18.4440    65.9880 ho         1 BCZ       0.432000
     48 H51         24.0570    18.8460    65.4880 hc         1 BCZ       0.045700
     49 H11         22.7580    17.0430    63.7670 hc         1 BCZ       0.048700
     50 H12         23.7090    16.5270    65.1600 hc         1 BCZ       0.048700
@<TRIPOS>BOND
     1     1     2 1   
     2     1     6 1   
     3     1    23 1   
     4     1    24 1   
     5     2     3 1   
     6     2    25 1   
     7     3     4 2   
     8     3     5 1   
     9     4    26 1   
    10     5    27 1   
    11     5    28 1   
    12     6     7 1   
    13     6    17 1   
    14     6    29 1   
    15     7     8 1   
    16     7    13 1   
    17     7    30 1   
    18     8     9 1   
    19     8    11 1   
    20     8    31 1   
    21     9    10 1   
    22     9    32 1   
    23     9    33 1   
    24    10    34 1   
    25    10    35 1   
    26    10    36 1   
    27    11    12 1   
    28    11    37 1   
    29    11    38 1   
    30    12    39 1   
    31    12    40 1   
    32    12    41 1   
    33    13    14 1   
    34    13    42 1   
    35    14    15 1   
    36    14    16 2   
    37    15    43 1   
    38    15    44 1   
    39    15    45 1   
    40    17    18 1   
    41    17    19 1   
    42    17    46 1   
    43    18    47 1   
    44    19    20 1   
    45    19    23 1   
    46    19    48 1   
    47    20    21 1   
    48    20    22 1   
    49    23    49 1   
    50    23    50 1   
@<TRIPOS>SUBSTRUCTURE
     1 BCZ         1 TEMP              0 ****  ****    0 ROOT
