@<TRIPOS>MOLECULE
BCZ
   50    50     1     0     0
SMALL
No Charge or Current Charge


@<TRIPOS>ATOM
      1 C2          24.7660    16.3420    63.2560 c5         1 BCZ       0.254500
      2 N25         24.3280    15.7630    61.9530 nu         1 BCZ      -0.909400
      3 C26         23.7010    14.6350    62.1830 c2         1 BCZ       0.797100
      4 N30         24.3360    13.5790    62.3540 n2         1 BCZ      -0.894100
      5 N27         22.7220    14.7420    61.3270 nv         1 BCZ      -1.069200
      6 C3          25.7500    17.5060    62.9190 c5         1 BCZ      -0.088700
      7 C10         27.2150    17.1000    62.5350 c3         1 BCZ       0.123700
      8 C24         28.2180    18.2990    62.3620 c3         1 BCZ      -0.066700
      9 C37         27.8440    19.2230    61.1570 c3         1 BCZ      -0.072900
     10 C38         28.6520    20.5350    61.0550 c3         1 BCZ      -0.088600
     11 C36         29.7050    17.8270    62.2870 c3         1 BCZ      -0.072900
     12 C39         30.2210    17.0960    63.5470 c3         1 BCZ      -0.088600
     13 N11         27.2550    16.2320    61.3500 ns         1 BCZ      -0.487900
     14 C13         27.6610    14.9160    61.3350 c          1 BCZ       0.597100
     15 C15         27.4920    14.2240    59.9860 c3         1 BCZ      -0.176100
     16 O14         28.1370    14.3460    62.3070 o          1 BCZ      -0.621100
     17 C4          25.6470    18.3140    64.2570 c5         1 BCZ       0.181300
     18 O9          26.3750    17.6930    65.3180 oh         1 BCZ      -0.693000
     19 C5          24.1240    18.3170    64.5880 c5         1 BCZ      -0.226700
     20 C6          23.5040    19.6720    64.1580 c          1 BCZ       0.710000
     21 O8          23.6080    20.0530    63.0020 o          1 BCZ      -0.735000
     22 O7          22.9300    20.3390    65.0050 o          1 BCZ      -0.735000
     23 C1          23.5150    17.1300    63.7630 c5         1 BCZ      -0.069400
     24 H21         25.1780    15.6320    63.9920 h1         1 BCZ       0.082700
     25 H251        23.7000    16.3100    61.3870 hn         1 BCZ       0.485000
     26 H301        23.7160    12.8040    62.1030 hn         1 BCZ       0.352400
     27 H271        21.8510    14.4140    61.7240 hn         1 BCZ       0.437000
     28 H272        22.9460    14.2590    60.4680 hn         1 BCZ       0.437000
     29 H31         25.3500    18.1020    62.0940 hc         1 BCZ       0.072700
     30 H101        27.5730    16.5060    63.3850 h1         1 BCZ       0.095700
     31 H241        28.1440    18.9160    63.2660 hc         1 BCZ       0.069700
     32 H371        27.9530    18.6680    60.2170 hc         1 BCZ       0.034700
     33 H372        26.7890    19.5100    61.2280 hc         1 BCZ       0.034700
     34 H381        28.2150    21.1880    60.2890 hc         1 BCZ       0.030700
     35 H382        28.6410    21.0760    62.0090 hc         1 BCZ       0.030700
     36 H383        29.6930    20.3450    60.7700 hc         1 BCZ       0.030700
     37 H361        29.8510    17.1840    61.4110 hc         1 BCZ       0.034700
     38 H362        30.3580    18.6940    62.1430 hc         1 BCZ       0.034700
     39 H391        31.2980    16.9130    63.4620 hc         1 BCZ       0.030700
     40 H392        30.0490    17.7010    64.4450 hc         1 BCZ       0.030700
     41 H393        29.7300    16.1260    63.6810 hc         1 BCZ       0.030700
     42 H111        26.8480    16.5820    60.4940 hn         1 BCZ       0.297500
     43 H151        26.4420    14.2940    59.6810 hc         1 BCZ       0.048367
     44 H152        27.9980    14.8150    59.2140 hc         1 BCZ       0.048367
     45 H153        27.8420    13.1860    59.9960 hc         1 BCZ       0.048367
     46 H41         26.0190    19.3400    64.1180 h1         1 BCZ       0.055700
     47 HO91        26.1920    18.2170    66.1290 ho         1 BCZ       0.432000
     48 H51         23.9410    18.1780    65.6600 hc         1 BCZ       0.045700
     49 H11         22.8930    17.5050    62.9410 hc         1 BCZ       0.048700
     50 H12         22.8630    16.4980    64.3780 hc         1 BCZ       0.048700
@<TRIPOS>BOND
     1     1     2 1   
     2     1     6 1   
     3     1    23 1   
     4     1    24 1   
     5     2     3 1   
     6     2    25 1   
     7     3     4 2   
     8     3     5 1   
     9     4    26 1   
    10     5    27 1   
    11     5    28 1   
    12     6     7 1   
    13     6    17 1   
    14     6    29 1   
    15     7     8 1   
    16     7    13 1   
    17     7    30 1   
    18     8     9 1   
    19     8    11 1   
    20     8    31 1   
    21     9    10 1   
    22     9    32 1   
    23     9    33 1   
    24    10    34 1   
    25    10    35 1   
    26    10    36 1   
    27    11    12 1   
    28    11    37 1   
    29    11    38 1   
    30    12    39 1   
    31    12    40 1   
    32    12    41 1   
    33    13    14 1   
    34    13    42 1   
    35    14    15 1   
    36    14    16 2   
    37    15    43 1   
    38    15    44 1   
    39    15    45 1   
    40    17    18 1   
    41    17    19 1   
    42    17    46 1   
    43    18    47 1   
    44    19    20 1   
    45    19    23 1   
    46    19    48 1   
    47    20    21 1   
    48    20    22 1   
    49    23    49 1   
    50    23    50 1   
@<TRIPOS>SUBSTRUCTURE
     1 BCZ         1 TEMP              0 ****  ****    0 ROOT
