@<TRIPOS>MOLECULE
BD0
   54    57     1     0     0
SMALL
No Charge or Current Charge


@<TRIPOS>ATOM
      1 C4           2.2930     0.8680     1.6740 ca         1 BD0       0.308100
      2 C6           2.2840     0.0690     0.5120 ca         1 BD0      -0.355600
      3 C7           1.5930     0.5420    -0.6290 ca         1 BD0       0.009000
      4 C8           0.9260     1.7770    -0.6020 ca         1 BD0       0.029000
      5 C10          2.9730    -1.2610     0.4880 c          1 BD0       0.604700
      6 N12          2.6370    -2.2510    -0.6750 nx         1 BD0      -0.616000
      7 C13          3.9270    -2.9510    -1.1500 c5         1 BD0       0.110600
      8 C15          2.0760    -4.5260    -0.9600 c5         1 BD0      -0.099400
      9 C17          0.3300    -2.7590    -0.3590 ca         1 BD0      -0.170300
     10 C20         -2.2370    -1.6030    -0.7260 ca         1 BD0      -0.035300
     11 C21         -3.6100    -0.9600    -0.9160 c3         1 BD0       0.207100
     12 C24         -3.3820     2.3890     0.6930 c5         1 BD0      -0.138400
     13 C28         -5.1320     0.9180    -0.2190 c5         1 BD0       0.105800
     14 C2           0.9340     2.5540     0.5720 ca         1 BD0       0.269100
     15 C3           1.6210     2.0950     1.7030 ca         1 BD0      -0.285000
     16 O5           2.9470     0.4700     2.7950 oh         1 BD0      -0.493100
     17 Cl9          0.0950     2.3330    -2.0570 cl         1 BD0      -0.129000
     18 O11          3.7440    -1.6250     1.3610 o          1 BD0      -0.508100
     19 C14          3.6290    -4.4560    -0.8720 c5         1 BD0      -0.099400
     20 C16          1.7300    -3.3030    -0.0790 c5         1 BD0       0.195600
     21 C18         -0.4770    -2.4280     0.7460 ca         1 BD0      -0.087500
     22 C19         -1.7490    -1.8620     0.5670 ca         1 BD0      -0.091500
     23 N22         -3.8030     0.2600    -0.0940 n3         1 BD0      -0.719600
     24 C23         -2.8410     1.3570    -0.3200 c5         1 BD0       0.152800
     25 C25         -4.9160     2.3240     0.4340 c5         1 BD0       0.187000
     26 F26         -5.3200     3.3420    -0.4300 f          1 BD0      -0.104500
     27 F27         -5.6340     2.4590     1.6210 f          1 BD0      -0.104500
     28 C29         -1.4400    -1.9340    -1.8370 ca         1 BD0      -0.091500
     29 C30         -0.1680    -2.5070    -1.6590 ca         1 BD0      -0.087500
     30 H7           1.5670    -0.0270    -1.5530 ha         1 BD0       0.121000
     31 H13          4.0790    -2.7430    -2.2140 hx         1 BD0       0.102700
     32 H13A         4.7990    -2.5770    -0.6050 hx         1 BD0       0.102700
     33 H15          1.7340    -4.4410    -1.9960 hc         1 BD0       0.092700
     34 H15A         1.6680    -5.4580    -0.5520 hc         1 BD0       0.092700
     35 H21         -3.7470    -0.7180    -1.9790 h1         1 BD0       0.058700
     36 H21A        -4.3740    -1.7050    -0.6580 h1         1 BD0       0.058700
     37 H24A        -2.9640     3.3880     0.5330 hc         1 BD0       0.077200
     38 H28         -5.4290     1.0280    -1.2720 h1         1 BD0       0.074200
     39 H28A        -5.9200     0.3470     0.2900 h1         1 BD0       0.074200
     40 HO1          0.4380     4.1540     1.4990 ho         1 BD0       0.500000
     41 H3           1.6410     2.6840     2.6160 ha         1 BD0       0.163000
     42 HO5          3.4100    -0.3690     2.5620 ho         1 BD0       0.514000
     43 H14          4.1270    -5.1170    -1.5900 hc         1 BD0       0.091700
     44 H14A         3.9820    -4.7410     0.1270 hc         1 BD0       0.091700
     45 H16          1.9560    -3.4520     0.9820 hx         1 BD0       0.109700
     46 H18         -0.1120    -2.5980     1.7570 ha         1 BD0       0.119000
     47 H19         -2.3530    -1.6060     1.4340 ha         1 BD0       0.144500
     48 H23         -2.8820     1.7330    -1.3520 h1         1 BD0       0.042700
     49 H23A        -1.8070     1.0640    -0.0920 h1         1 BD0       0.042700
     50 H29         -1.8010    -1.7380    -2.8450 ha         1 BD0       0.144500
     51 H30          0.4230    -2.7340    -2.5420 ha         1 BD0       0.119000
     52 H241         2.1600    -1.8100    -1.4770 hn         1 BD0       0.500000
     53 O1           0.2840     3.7540     0.6180 oh         1 BD0      -0.480100
     54 H24         -3.1370     2.0910     1.7180 hc         1 BD0       0.077200
@<TRIPOS>BOND
     1     1     2 ar  
     2     1    15 ar  
     3     1    16 1   
     4     2     3 ar  
     5     2     5 1   
     6     3     4 ar  
     7     3    30 1   
     8     4    14 ar  
     9     4    17 1   
    10     5     6 1   
    11     5    18 2   
    12     6     7 1   
    13     6    20 1   
    14     6    52 1   
    15     7    19 1   
    16     7    31 1   
    17     7    32 1   
    18     8    19 1   
    19     8    20 1   
    20     8    33 1   
    21     8    34 1   
    22     9    20 1   
    23     9    21 ar  
    24     9    29 ar  
    25    10    11 1   
    26    10    22 ar  
    27    10    28 ar  
    28    11    23 1   
    29    11    35 1   
    30    11    36 1   
    31    12    24 1   
    32    12    25 1   
    33    12    37 1   
    34    12    54 1   
    35    13    23 1   
    36    13    25 1   
    37    13    38 1   
    38    13    39 1   
    39    14    15 ar  
    40    14    53 1   
    41    15    41 1   
    42    16    42 1   
    43    19    43 1   
    44    19    44 1   
    45    20    45 1   
    46    21    22 ar  
    47    21    46 1   
    48    22    47 1   
    49    23    24 1   
    50    24    48 1   
    51    24    49 1   
    52    25    26 1   
    53    25    27 1   
    54    28    29 ar  
    55    28    50 1   
    56    29    51 1   
    57    40    53 1   
@<TRIPOS>SUBSTRUCTURE
     1 BD0         1 TEMP              0 ****  ****    0 ROOT
