@<TRIPOS>MOLECULE
BD0
   54    57     1     0     0
SMALL
bcc


@<TRIPOS>ATOM
      1 C4           1.9170     0.8800     1.4960 ca         1 BD0       0.308100
      2 C6           2.0610    -0.0220     0.4070 ca         1 BD0      -0.355600
      3 C7           1.5320     0.3580    -0.8430 ca         1 BD0      -0.009000
      4 C8           0.8890     1.5480    -1.0140 ca         1 BD0      -0.062600
      5 C10          2.6950    -1.2860     0.6570 c          1 BD0       0.604700
      6 N12          2.7330    -2.2870    -0.4400 nx         1 BD0      -0.617200
      7 C13          4.0470    -3.0240    -0.6140 c5         1 BD0       0.138800
      8 C15          2.1580    -4.4520    -1.1780 c5         1 BD0      -0.099400
      9 C17          0.2930    -2.7810    -0.4540 ca         1 BD0      -0.170300
     10 C20         -2.1550    -1.4540    -0.7710 ca         1 BD0      -0.035300
     11 C21         -3.4600    -0.7260    -0.9480 c3         1 BD0       0.207100
     12 C24         -3.2360     2.4860     0.8460 c5         1 BD0      -0.138400
     13 C28         -4.9150     0.9770    -0.0290 c5         1 BD0       0.105800
     14 C2           0.7400     2.4370     0.0720 ca         1 BD0       0.269100
     15 C3           1.2580     2.0910     1.3070 ca         1 BD0      -0.303000
     16 O5           2.3710     0.6350     2.7120 oh         1 BD0      -0.454100
     17 CL9          0.2390     1.9870    -2.5460 cl         1 BD0      -0.037400
     18 O11          3.1620    -1.6460     1.7130 o          1 BD0      -0.508100
     19 C14          3.6580    -4.4770    -0.9030 c5         1 BD0      -0.099400
     20 C16          1.6520    -3.3700    -0.2460 c5         1 BD0       0.223800
     21 C18         -0.4840    -2.4520     0.6540 ca         1 BD0      -0.105500
     22 C19         -1.6970    -1.8030     0.4970 ca         1 BD0      -0.109500
     23 N22         -3.6300     0.3170     0.0340 n3         1 BD0      -0.719600
     24 C23         -2.6500     1.3900    -0.0480 c5         1 BD0       0.152800
     25 C25         -4.7180     2.1330     0.9330 c5         1 BD0       0.429600
     26 F26         -5.5370     3.1830     0.6440 f          1 BD0      -0.225800
     27 F27         -5.0550     1.7580     2.2050 f          1 BD0      -0.225800
     28 C29         -1.3830    -1.7950    -1.8760 ca         1 BD0      -0.109500
     29 C30         -0.1750    -2.4600    -1.7240 ca         1 BD0      -0.105500
     30 H7           1.6170    -0.2730    -1.7160 ha         1 BD0       0.139000
     31 H13          4.5670    -2.5400    -1.4350 hx         1 BD0       0.102700
     32 H13A         4.6360    -2.9190     0.2910 hx         1 BD0       0.102700
     33 H15          1.9510    -4.2050    -2.2210 hc         1 BD0       0.092700
     34 H15A         1.6720    -5.3990    -0.9530 hc         1 BD0       0.092700
     35 H21         -3.5210    -0.3340    -1.9770 h1         1 BD0       0.058700
     36 H21A        -4.2860    -1.4360    -0.8390 h1         1 BD0       0.058700
     37 H24A        -3.0910     3.4780     0.4220 hc         1 BD0       0.077200
     38 H28         -5.1360     1.3810    -1.0320 h1         1 BD0       0.074200
     39 H28A        -5.7340     0.3150     0.2580 h1         1 BD0       0.074200
     40 HO1          0.0580     4.1160     0.6410 ho         1 BD0       0.461000
     41 H3           1.1550     2.7650     2.1490 ha         1 BD0       0.181000
     42 HO5          2.8170    -0.2320     2.7400 ho         1 BD0       0.475000
     43 H14          4.2240    -4.8720    -1.7430 hc         1 BD0       0.091700
     44 H14A         3.8710    -5.0960    -0.0330 hc         1 BD0       0.091700
     45 H16          1.7680    -3.7020     0.7870 hx         1 BD0       0.109700
     46 H18         -0.1340    -2.6990     1.6490 ha         1 BD0       0.137000
     47 H19         -2.2850    -1.5430     1.3680 ha         1 BD0       0.162500
     48 H23         -2.5340     1.7540    -1.0800 h1         1 BD0       0.042700
     49 H23A        -1.6740     1.0480     0.2940 h1         1 BD0       0.042700
     50 H29         -1.7200    -1.5300    -2.8700 ha         1 BD0       0.162500
     51 H30          0.4040    -2.6990    -2.6080 ha         1 BD0       0.137000
     52 H241         2.5360    -1.8360    -1.3330 hn         1 BD0       0.444800
     53 O1           0.0910     3.5660    -0.1520 oh         1 BD0      -0.441100
     54 H24         -2.7900     2.4820     1.8410 hc         1 BD0       0.077200
@<TRIPOS>BOND
     1     1     2 ar  
     2     1    15 ar  
     3     1    16 1   
     4     2     3 ar  
     5     2     5 1   
     6     3     4 ar  
     7     3    30 1   
     8     4    14 ar  
     9     4    17 1   
    10     5     6 1   
    11     5    18 2   
    12     6     7 1   
    13     6    20 1   
    14     6    52 1   
    15     7    19 1   
    16     7    31 1   
    17     7    32 1   
    18     8    19 1   
    19     8    20 1   
    20     8    33 1   
    21     8    34 1   
    22     9    20 1   
    23     9    21 ar  
    24     9    29 ar  
    25    10    11 1   
    26    10    22 ar  
    27    10    28 ar  
    28    11    23 1   
    29    11    35 1   
    30    11    36 1   
    31    12    24 1   
    32    12    25 1   
    33    12    37 1   
    34    12    54 1   
    35    13    23 1   
    36    13    25 1   
    37    13    38 1   
    38    13    39 1   
    39    14    15 ar  
    40    14    53 1   
    41    15    41 1   
    42    16    42 1   
    43    19    43 1   
    44    19    44 1   
    45    20    45 1   
    46    21    22 ar  
    47    21    46 1   
    48    22    47 1   
    49    23    24 1   
    50    24    48 1   
    51    24    49 1   
    52    25    26 1   
    53    25    27 1   
    54    28    29 ar  
    55    28    50 1   
    56    29    51 1   
    57    40    53 1   
@<TRIPOS>SUBSTRUCTURE
     1 BD0         1 TEMP              0 ****  ****    0 ROOT
