@<TRIPOS>MOLECULE
BD1
   20    21     1     0     0
SMALL
abcg2


@<TRIPOS>ATOM
      1 C1          -0.6920     0.4800    -2.3530 c2         1 BD1      -0.215700
      2 C2          -1.4560     0.2180    -1.0940 c6         1 BD1      -0.048700
      3 C3          -0.7410    -0.7210    -0.1190 c5         1 BD1       0.146300
      4 O3          -1.0610    -0.3830     1.2260 os         1 BD1      -0.477500
      5 C4           0.7730    -0.5710    -0.1030 c5         1 BD1       0.146300
      6 O4           0.8920     0.5930     0.7110 os         1 BD1      -0.477500
      7 C5           1.4560    -0.3970    -1.4440 c6         1 BD1      -0.048700
      8 C6           0.6060     0.2380    -2.4960 c2         1 BD1      -0.215700
      9 C7          -0.0800     0.4830     1.7070 c5         1 BD1       0.551300
     10 O1           0.3970    -0.0860     2.8700 oh         1 BD1      -0.638000
     11 H1          -1.2440     0.9250    -3.1730 ha         1 BD1       0.175500
     12 H2C1        -2.4380    -0.1940    -1.3360 hc         1 BD1       0.060950
     13 H2C2        -1.6590     1.1770    -0.6060 hc         1 BD1       0.060950
     14 H3          -1.0380    -1.7570    -0.2940 h1         1 BD1       0.074700
     15 H4           1.2200    -1.4310     0.4130 h1         1 BD1       0.074700
     16 H5C1         1.7700    -1.3840    -1.7970 hc         1 BD1       0.060950
     17 H5C2         2.3870     0.1620    -1.3070 hc         1 BD1       0.060950
     18 H6           1.0930     0.4750    -3.4350 ha         1 BD1       0.175500
     19 H7          -0.4750     1.4900     1.8950 h3         1 BD1       0.066700
     20 HA           0.8070     0.5980     3.4120 ho         1 BD1       0.466000
@<TRIPOS>BOND
     1     1     2 1   
     2     1     8 2   
     3     1    11 1   
     4     2     3 1   
     5     2    12 1   
     6     2    13 1   
     7     3     4 1   
     8     3     5 1   
     9     3    14 1   
    10     4     9 1   
    11     5     6 1   
    12     5     7 1   
    13     5    15 1   
    14     6     9 1   
    15     7     8 1   
    16     7    16 1   
    17     7    17 1   
    18     8    18 1   
    19     9    10 1   
    20     9    19 1   
    21    10    20 1   
@<TRIPOS>SUBSTRUCTURE
     1 BD1         1 TEMP              0 ****  ****    0 ROOT
