@<TRIPOS>MOLECULE
BD1
   20    21     1     0     0
SMALL
No Charge or Current Charge


@<TRIPOS>ATOM
      1 C1          -0.7380    -0.0670    -2.5670 c2         1 BD1      -0.215700
      2 C2          -1.4960     0.3080    -1.3010 c6         1 BD1      -0.048700
      3 C3          -0.8080    -0.2590    -0.0290 c5         1 BD1       0.146300
      4 O3          -1.0770     0.5900     1.1110 os         1 BD1      -0.477500
      5 C4           0.7620    -0.3290    -0.0650 c5         1 BD1       0.146300
      6 O4           1.1580     0.4790     1.0690 os         1 BD1      -0.477500
      7 C5           1.4360     0.1960    -1.3610 c6         1 BD1      -0.048700
      8 C6           0.6020    -0.1170    -2.5950 c2         1 BD1      -0.215700
      9 C7           0.0540     0.4550     1.9760 c5         1 BD1       0.551300
     10 O1           0.0150    -0.7830     2.6500 oh         1 BD1      -0.638000
     11 H1          -1.3330    -0.2900    -3.4560 ha         1 BD1       0.175500
     12 H2C1        -2.5260    -0.0700    -1.3530 hc         1 BD1       0.060950
     13 H2C2        -1.5660     1.4020    -1.2370 hc         1 BD1       0.060950
     14 H3          -1.2110    -1.2630     0.1670 h1         1 BD1       0.074700
     15 H4           1.0830    -1.3670     0.1000 h1         1 BD1       0.074700
     16 H5C1         2.4340    -0.2540    -1.4560 hc         1 BD1       0.060950
     17 H5C2         1.5860     1.2820    -1.2970 hc         1 BD1       0.060950
     18 H6           1.1420    -0.3840    -3.5070 ha         1 BD1       0.175500
     19 H7           0.1070     1.2330     2.7520 h3         1 BD1       0.066700
     20 HA           0.8920    -0.8460     3.0780 ho         1 BD1       0.466000
@<TRIPOS>BOND
     1     1     2 1   
     2     1     8 2   
     3     1    11 1   
     4     2     3 1   
     5     2    12 1   
     6     2    13 1   
     7     3     4 1   
     8     3     5 1   
     9     3    14 1   
    10     4     9 1   
    11     5     6 1   
    12     5     7 1   
    13     5    15 1   
    14     6     9 1   
    15     7     8 1   
    16     7    16 1   
    17     7    17 1   
    18     8    18 1   
    19     9    10 1   
    20     9    19 1   
    21    10    20 1   
@<TRIPOS>SUBSTRUCTURE
     1 BD1         1 TEMP              0 ****  ****    0 ROOT
