@<TRIPOS>MOLECULE
BD2
   61    64     1     0     0
SMALL
bcc


@<TRIPOS>ATOM
      1 O1           4.0450    -1.6960    -1.3630 oh         1 BD2      -0.514100
      2 C1           3.2680    -1.2470    -0.3530 ca         1 BD2       0.149100
      3 C2           3.6200    -0.1520     0.4320 ca         1 BD2      -0.196500
      4 C3           2.7480     0.3010     1.4050 ca         1 BD2      -0.048000
      5 C4           1.5320    -0.3370     1.6360 ca         1 BD2      -0.186600
      6 C5           1.2080    -1.4460     0.8560 ca         1 BD2      -0.048000
      7 C6           2.0610    -1.9000    -0.1320 ca         1 BD2      -0.196500
      8 C7           0.5990     0.2600     2.6320 c          1 BD2       0.691700
      9 O7           0.6710     1.4440     2.9310 o          1 BD2      -0.596100
     10 N8          -0.3190    -0.5730     3.1690 ns         1 BD2      -0.578900
     11 C8          -1.3970    -0.1190     4.0180 c3         1 BD2       0.095700
     12 C9          -2.7020     0.0720     3.2040 c3         1 BD2       0.138100
     13 C10         -3.6480     1.1250     3.7630 c3         1 BD2      -0.074400
     14 C11         -3.8760     1.0750     5.2780 c3         1 BD2      -0.074400
     15 C12         -3.7670    -0.2930     5.9470 c3         1 BD2       0.163800
     16 N13         -2.3860    -0.6390     6.2440 n7         1 BD2      -0.816200
     17 C14         -1.5970    -1.1410     5.1420 c3         1 BD2       0.153800
     18 O9          -2.3730     0.4990     1.8770 os         1 BD2      -0.408900
     19 C15         -2.2160    -0.4020     0.9200 c          1 BD2       0.662700
     20 O15         -2.5200    -1.5670     1.0220 o          1 BD2      -0.557000
     21 C16         -1.6080     0.1730    -0.3080 ca         1 BD2      -0.130600
     22 C17         -1.1330     1.4820    -0.3610 ca         1 BD2      -0.086000
     23 C18         -0.5420     1.9560    -1.5180 ca         1 BD2      -0.097500
     24 C19         -0.3900     1.1250    -2.6250 ca         1 BD2      -0.120600
     25 C20         -0.8560    -0.1860    -2.5660 ca         1 BD2      -0.097500
     26 C21         -1.4710    -0.6540    -1.4200 ca         1 BD2      -0.086000
     27 C22          0.1980     1.6720    -3.8780 c          1 BD2       0.606300
     28 O22          0.1050     2.8550    -4.1330 o          1 BD2      -0.514100
     29 C23          0.8350     0.7390    -4.8450 ca         1 BD2      -0.210600
     30 C24          0.4770     0.8160    -6.1900 ca         1 BD2      -0.047000
     31 C25          1.0400    -0.0340    -7.1270 ca         1 BD2      -0.178000
     32 C26          1.9990    -0.9530    -6.7180 ca         1 BD2      -0.066000
     33 C27          2.3960    -1.0210    -5.3920 ca         1 BD2      -0.237000
     34 C28          1.8200    -0.1740    -4.4480 ca         1 BD2       0.181100
     35 O28          2.1920    -0.1600    -3.1620 oh         1 BD2      -0.494100
     36 HO1          4.8680    -1.1940    -1.4080 ho         1 BD2       0.432000
     37 H2           4.5630     0.3580     0.2720 ha         1 BD2       0.143000
     38 H3           3.0210     1.1700     1.9890 ha         1 BD2       0.147500
     39 H5           0.2610    -1.9560     0.9750 ha         1 BD2       0.147500
     40 H6           1.7810    -2.7450    -0.7460 ha         1 BD2       0.143000
     41 HN8         -0.2620    -1.5590     2.9700 hn         1 BD2       0.318500
     42 H8          -1.0930     0.8340     4.4540 h1         1 BD2       0.106700
     43 H9          -3.2160    -0.8910     3.1480 h1         1 BD2       0.062700
     44 H101        -4.6030     1.0110     3.2450 hc         1 BD2       0.056200
     45 H102        -3.2680     2.1150     3.4990 hc         1 BD2       0.056200
     46 H111        -4.8680     1.4840     5.4750 hc         1 BD2       0.053200
     47 H112        -3.1700     1.7370     5.7850 hc         1 BD2       0.053200
     48 H121        -4.2860    -1.0600     5.3500 h1         1 BD2       0.031700
     49 H122        -4.2920    -0.2450     6.9010 h1         1 BD2       0.031700
     50 H13         -2.3710    -1.3350     6.9770 hn         1 BD2       0.363800
     51 H141        -2.0100    -2.0640     4.6990 h1         1 BD2       0.035700
     52 H142        -0.6120    -1.3960     5.5360 h1         1 BD2       0.035700
     53 H17         -1.2120     2.1350     0.4970 ha         1 BD2       0.155500
     54 H18         -0.1800     2.9750    -1.5530 ha         1 BD2       0.147500
     55 H20         -0.7610    -0.8420    -3.4210 ha         1 BD2       0.147500
     56 H21         -1.8360    -1.6710    -1.3870 ha         1 BD2       0.155500
     57 H24         -0.2730     1.5340    -6.4960 ha         1 BD2       0.146000
     58 H25          0.7370     0.0190    -8.1640 ha         1 BD2       0.139000
     59 H26          2.4510    -1.6230    -7.4380 ha         1 BD2       0.132000
     60 H27          3.1620    -1.7270    -5.0920 ha         1 BD2       0.136000
     61 H28          2.8440    -0.8470    -2.9700 ho         1 BD2       0.442000
@<TRIPOS>BOND
     1     1     2 1   
     2     1    36 1   
     3     2     3 ar  
     4     2     7 ar  
     5     3     4 ar  
     6     3    37 1   
     7     4     5 ar  
     8     4    38 1   
     9     5     6 ar  
    10     5     8 1   
    11     6     7 ar  
    12     6    39 1   
    13     7    40 1   
    14     8     9 2   
    15     8    10 1   
    16    10    11 1   
    17    10    41 1   
    18    11    12 1   
    19    11    17 1   
    20    11    42 1   
    21    12    13 1   
    22    12    18 1   
    23    12    43 1   
    24    13    14 1   
    25    13    44 1   
    26    13    45 1   
    27    14    15 1   
    28    14    46 1   
    29    14    47 1   
    30    15    16 1   
    31    15    48 1   
    32    15    49 1   
    33    16    17 1   
    34    16    50 1   
    35    17    51 1   
    36    17    52 1   
    37    18    19 1   
    38    19    20 2   
    39    19    21 1   
    40    21    22 ar  
    41    21    26 ar  
    42    22    23 ar  
    43    22    53 1   
    44    23    24 ar  
    45    23    54 1   
    46    24    25 ar  
    47    24    27 1   
    48    25    26 ar  
    49    25    55 1   
    50    26    56 1   
    51    27    28 2   
    52    27    29 1   
    53    29    30 ar  
    54    29    34 ar  
    55    30    31 ar  
    56    30    57 1   
    57    31    32 ar  
    58    31    58 1   
    59    32    33 ar  
    60    32    59 1   
    61    33    34 ar  
    62    33    60 1   
    63    34    35 1   
    64    35    61 1   
@<TRIPOS>SUBSTRUCTURE
     1 BD2         1 TEMP              0 ****  ****    0 ROOT
