@<TRIPOS>MOLECULE
BD2
   61    64     1     0     0
SMALL
No Charge or Current Charge


@<TRIPOS>ATOM
      1 O1           3.9970    -1.4830    -1.6630 oh         1 BD2      -0.553100
      2 C1           3.2760    -1.2140    -0.5370 ca         1 BD2       0.149100
      3 C2           3.7970    -0.3690     0.4510 ca         1 BD2      -0.178500
      4 C3           3.0250    -0.0490     1.5820 ca         1 BD2      -0.030000
      5 C4           1.7220    -0.5740     1.7410 ca         1 BD2      -0.186600
      6 C5           1.2200    -1.4480     0.7440 ca         1 BD2      -0.030000
      7 C6           1.9940    -1.7560    -0.3880 ca         1 BD2      -0.178500
      8 C7           0.8960    -0.1510     2.9370 c          1 BD2       0.624700
      9 O7           1.3160     0.6450     3.7650 o          1 BD2      -0.596100
     10 N8          -0.3720    -0.6800     3.0330 ns         1 BD2      -0.511900
     11 C8          -1.4220    -0.2010     3.9570 c3         1 BD2       0.095700
     12 C9          -2.7720     0.1210     3.2280 c3         1 BD2       0.161300
     13 C10         -3.6020     1.2470     3.8910 c3         1 BD2      -0.074400
     14 C11         -3.6800     1.2300     5.4380 c3         1 BD2      -0.074400
     15 C12         -3.7110    -0.1680     6.0930 c3         1 BD2       0.163800
     16 N13         -2.3400    -0.6860     6.2930 n7         1 BD2      -0.871400
     17 C14         -1.6180    -1.2230     5.1130 c3         1 BD2       0.153800
     18 O9          -2.5200     0.5580     1.8700 os         1 BD2      -0.432100
     19 C15         -2.3830    -0.3820     0.8770 c          1 BD2       0.613700
     20 O15         -2.5060    -1.5850     1.0690 o          1 BD2      -0.508000
     21 C16         -1.8560     0.1770    -0.4230 ca         1 BD2      -0.130600
     22 C17         -1.6660     1.5650    -0.6130 ca         1 BD2      -0.068000
     23 C18         -1.1200     2.0530    -1.8130 ca         1 BD2      -0.079500
     24 C19         -0.7380     1.1680    -2.8440 ca         1 BD2      -0.120600
     25 C20         -0.9520    -0.2150    -2.6630 ca         1 BD2      -0.079500
     26 C21         -1.5040    -0.7040    -1.4690 ca         1 BD2      -0.068000
     27 C22         -0.1170     1.6970    -4.1190 c          1 BD2       0.606300
     28 O22         -0.3400     2.8390    -4.5050 o          1 BD2      -0.514100
     29 C23          0.7620     0.7830    -4.9290 ca         1 BD2      -0.210600
     30 C24          0.5110     0.6200    -6.3070 ca         1 BD2      -0.029000
     31 C25          1.3100    -0.2470    -7.0730 ca         1 BD2      -0.160000
     32 C26          2.3690    -0.9470    -6.4730 ca         1 BD2      -0.048000
     33 C27          2.6350    -0.7690    -5.1050 ca         1 BD2      -0.219000
     34 C28          1.8420     0.0970    -4.3380 ca         1 BD2       0.181100
     35 O28          2.1510     0.2930    -3.0290 oh         1 BD2      -0.533100
     36 HO1          4.9350    -1.2450    -1.4920 ho         1 BD2       0.471000
     37 H2           4.7900     0.0610     0.3420 ha         1 BD2       0.125000
     38 H3           3.4400     0.6270     2.3280 ha         1 BD2       0.129500
     39 H5           0.2300    -1.8870     0.8190 ha         1 BD2       0.129500
     40 H6           1.5910    -2.4110    -1.1560 ha         1 BD2       0.125000
     41 HN8         -0.6410    -1.3530     2.3280 hn         1 BD2       0.318500
     42 H8          -1.0650     0.7350     4.4080 h1         1 BD2       0.106700
     43 H9          -3.3940    -0.7840     3.2290 h1         1 BD2       0.062700
     44 H101        -4.6220     1.1890     3.4890 hc         1 BD2       0.056200
     45 H102        -3.2070     2.2220     3.5800 hc         1 BD2       0.056200
     46 H111        -4.5860     1.7730     5.7360 hc         1 BD2       0.053200
     47 H112        -2.8410     1.8020     5.8530 hc         1 BD2       0.053200
     48 H121        -4.3320    -0.8600     5.5080 h1         1 BD2       0.031700
     49 H122        -4.1890    -0.0570     7.0760 h1         1 BD2       0.031700
     50 H13         -2.3930    -1.4440     6.9870 hn         1 BD2       0.419000
     51 H141        -2.1350    -2.1080     4.7190 h1         1 BD2       0.035700
     52 H142        -0.6230    -1.5580     5.4370 h1         1 BD2       0.035700
     53 H17         -1.9280     2.2730     0.1700 ha         1 BD2       0.137500
     54 H18         -0.9720     3.1250    -1.9320 ha         1 BD2       0.129500
     55 H20         -0.6860    -0.9220    -3.4470 ha         1 BD2       0.129500
     56 H21         -1.6440    -1.7770    -1.3540 ha         1 BD2       0.137500
     57 H24         -0.3120     1.1530    -6.7810 ha         1 BD2       0.128000
     58 H25          1.1060    -0.3760    -8.1340 ha         1 BD2       0.121000
     59 H26          2.9860    -1.6170    -7.0680 ha         1 BD2       0.114000
     60 H27          3.4680    -1.3000    -4.6500 ha         1 BD2       0.118000
     61 H28          2.8090    -0.3870    -2.7520 ho         1 BD2       0.481000
@<TRIPOS>BOND
     1     1     2 1   
     2     1    36 1   
     3     2     3 ar  
     4     2     7 ar  
     5     3     4 ar  
     6     3    37 1   
     7     4     5 ar  
     8     4    38 1   
     9     5     6 ar  
    10     5     8 1   
    11     6     7 ar  
    12     6    39 1   
    13     7    40 1   
    14     8     9 2   
    15     8    10 1   
    16    10    11 1   
    17    10    41 1   
    18    11    12 1   
    19    11    17 1   
    20    11    42 1   
    21    12    13 1   
    22    12    18 1   
    23    12    43 1   
    24    13    14 1   
    25    13    44 1   
    26    13    45 1   
    27    14    15 1   
    28    14    46 1   
    29    14    47 1   
    30    15    16 1   
    31    15    48 1   
    32    15    49 1   
    33    16    17 1   
    34    16    50 1   
    35    17    51 1   
    36    17    52 1   
    37    18    19 1   
    38    19    20 2   
    39    19    21 1   
    40    21    22 ar  
    41    21    26 ar  
    42    22    23 ar  
    43    22    53 1   
    44    23    24 ar  
    45    23    54 1   
    46    24    25 ar  
    47    24    27 1   
    48    25    26 ar  
    49    25    55 1   
    50    26    56 1   
    51    27    28 2   
    52    27    29 1   
    53    29    30 ar  
    54    29    34 ar  
    55    30    31 ar  
    56    30    57 1   
    57    31    32 ar  
    58    31    58 1   
    59    32    33 ar  
    60    32    59 1   
    61    33    34 ar  
    62    33    60 1   
    63    34    35 1   
    64    35    61 1   
@<TRIPOS>SUBSTRUCTURE
     1 BD2         1 TEMP              0 ****  ****    0 ROOT
