@<TRIPOS>MOLECULE
BD3
   62    64     1     0     0
SMALL
bcc


@<TRIPOS>ATOM
      1 C1          -0.9400    -2.6870     0.2980 ca         1 BD3      -0.087300
      2 C2          -0.9380    -3.5000    -0.8340 ca         1 BD3      -0.095000
      3 C3           0.2730    -2.2350     0.7930 ca         1 BD3      -0.077000
      4 C4           0.2530    -3.8460    -1.4560 ca         1 BD3      -0.131000
      5 C5           1.4720    -2.5630     0.1610 ca         1 BD3      -0.147500
      6 C6           1.4620    -3.3770    -0.9700 ca         1 BD3      -0.084000
      7 C7           2.7040    -2.0160     0.6950 cc         1 BD3       0.536900
      8 N13          7.1050    -1.2100     1.3160 n2         1 BD3      -0.690100
      9 C15         -2.8010    -1.0150     0.2230 c3         1 BD3       0.040700
     10 C18         -0.5610     1.8530    -0.6050 cc         1 BD3      -0.177900
     11 C23         -6.5270    -0.3390     0.5840 c3         1 BD3       0.038700
     12 C24         -6.8500     1.0940     0.2710 c2         1 BD3       0.396200
     13 C32          3.0280     2.7800     1.6200 c3         1 BD3      -0.080100
     14 C33          3.2610     4.4570    -0.2200 c3         1 BD3      -0.080100
     15 C34          3.7570     2.0500    -0.6590 c3         1 BD3      -0.080100
     16 N25         -7.9230     1.4070    -0.3150 n2         1 BD3      -0.742100
     17 C20         -4.1060    -0.5900     0.8930 c          1 BD3       0.648100
     18 O21         -4.1140    -0.2040     2.0510 o          1 BD3      -0.596100
     19 N16         -1.8490     0.0640     0.2640 ns         1 BD3      -0.557900
     20 C29          0.6590     1.6140    -0.0050 cd         1 BD3      -0.272300
     21 C28          1.4250     2.7610    -0.2710 cd         1 BD3       0.324600
     22 N27          0.7130     3.6260    -0.9760 nc         1 BD3      -0.509800
     23 N26         -0.4750     3.0710    -1.1780 na         1 BD3       0.149400
     24 C14         -2.2290    -2.2510     0.9320 c3         1 BD3      -0.041100
     25 O11          3.8910    -2.4020     0.2140 os         1 BD3      -0.346800
     26 C10          4.7680    -1.6850     0.9350 cc         1 BD3       0.353100
     27 N9           4.1730    -0.9240     1.7850 nd         1 BD3      -0.341000
     28 N8           2.8410    -1.1320     1.6320 nd         1 BD3      -0.367000
     29 H2          -1.8740    -3.8700    -1.2330 ha         1 BD3       0.136000
     30 H3           0.2990    -1.6290     1.6910 ha         1 BD3       0.154000
     31 H4           0.2390    -4.4830    -2.3290 ha         1 BD3       0.142000
     32 H6           2.3810    -3.6440    -1.4730 ha         1 BD3       0.147000
     33 H12          6.4810    -2.5240    -0.1010 h4         1 BD3       0.041800
     34 HN13         6.7160    -0.5940     2.0280 hn         1 BD3       0.406400
     35 H15         -2.9720    -1.2670    -0.8260 h1         1 BD3       0.079700
     36 HN22        -5.0940    -0.9190    -0.8450 hn         1 BD3       0.324500
     37 H23         -7.2590    -0.9930     0.1120 h1         1 BD3       0.077700
     38 H23A        -6.5850    -0.4980     1.6620 h1         1 BD3       0.077700
     39 H24         -6.0990     1.8210     0.5910 h4         1 BD3      -0.025200
     40 H30         -2.4100     3.8580    -1.3660 h1         1 BD3       0.064033
     41 H30A        -1.0990     4.7970    -2.0940 h1         1 BD3       0.064033
     42 H30B        -1.6790     3.3170    -2.8810 h1         1 BD3       0.064033
     43 H32          4.0620     2.9610     1.9190 hc         1 BD3       0.037033
     44 H32A         2.3890     3.4460     2.2040 hc         1 BD3       0.037033
     45 H32B         2.7850     1.7530     1.8960 hc         1 BD3       0.037033
     46 H33          3.1770     4.6600    -1.2880 hc         1 BD3       0.037033
     47 H33A         2.6460     5.1860     0.3080 hc         1 BD3       0.037033
     48 H33B         4.2990     4.6230     0.0700 hc         1 BD3       0.037033
     49 H34          3.5110     1.0130    -0.4310 hc         1 BD3       0.037033
     50 H34A         3.6550     2.1890    -1.7360 hc         1 BD3       0.037033
     51 H34B         4.8050     2.2060    -0.3970 hc         1 BD3       0.037033
     52 HN25        -7.9850     2.4150    -0.4300 hn         1 BD3       0.380400
     53 HN16        -1.2730     0.1660     1.0840 hn         1 BD3       0.339500
     54 H29          0.9710     0.7230     0.5190 ha         1 BD3       0.169000
     55 H14         -2.9720    -3.0500     0.8790 hc         1 BD3       0.071200
     56 H14A        -2.0790    -2.0280     1.9900 hc         1 BD3       0.071200
     57 C12          6.2020    -1.8290     0.6880 ce         1 BD3       0.384200
     58 C17         -1.7440     0.9760    -0.7240 c          1 BD3       0.714700
     59 N22         -5.2030    -0.6990     0.1310 ns         1 BD3      -0.560900
     60 C30         -1.4810     3.7950    -1.9260 c3         1 BD3       0.043600
     61 C31          2.8570     3.0220     0.1160 c3         1 BD3      -0.068300
     62 O19         -2.5290     1.0480    -1.6540 o          1 BD3      -0.610100
@<TRIPOS>BOND
     1     1     2 ar  
     2     1     3 ar  
     3     1    24 1   
     4     2     4 ar  
     5     2    29 1   
     6     3     5 ar  
     7     3    30 1   
     8     4     6 ar  
     9     4    31 1   
    10     5     6 ar  
    11     5     7 1   
    12     6    32 1   
    13     7    25 1   
    14     7    28 2   
    15     8    34 1   
    16     8    57 2   
    17     9    17 1   
    18     9    19 1   
    19     9    24 1   
    20     9    35 1   
    21    10    20 2   
    22    10    23 1   
    23    10    58 1   
    24    11    12 1   
    25    11    37 1   
    26    11    38 1   
    27    11    59 1   
    28    12    16 2   
    29    12    39 1   
    30    13    43 1   
    31    13    44 1   
    32    13    45 1   
    33    13    61 1   
    34    14    46 1   
    35    14    47 1   
    36    14    48 1   
    37    14    61 1   
    38    15    49 1   
    39    15    50 1   
    40    15    51 1   
    41    15    61 1   
    42    16    52 1   
    43    17    18 2   
    44    17    59 1   
    45    19    53 1   
    46    19    58 1   
    47    20    21 1   
    48    20    54 1   
    49    21    22 2   
    50    21    61 1   
    51    22    23 1   
    52    23    60 1   
    53    24    55 1   
    54    24    56 1   
    55    25    26 1   
    56    26    27 2   
    57    26    57 1   
    58    27    28 1   
    59    33    57 1   
    60    36    59 1   
    61    40    60 1   
    62    41    60 1   
    63    42    60 1   
    64    58    62 2   
@<TRIPOS>SUBSTRUCTURE
     1 BD3         1 TEMP              0 ****  ****    0 ROOT
