@<TRIPOS>MOLECULE
BD3
   62    64     1     0     0
SMALL
No Charge or Current Charge


@<TRIPOS>ATOM
      1 C1          -1.3140    -2.3090    -0.3500 ca         1 BD3      -0.087300
      2 C2          -1.4490    -2.9430    -1.5980 ca         1 BD3      -0.077000
      3 C3          -0.0300    -1.9710     0.1220 ca         1 BD3      -0.059000
      4 C4          -0.3110    -3.2200    -2.3720 ca         1 BD3      -0.113000
      5 C5           1.1170    -2.2100    -0.6650 ca         1 BD3      -0.147500
      6 C6           0.9650    -2.8500    -1.9140 ca         1 BD3      -0.066000
      7 C7           2.4420    -1.8020    -0.1810 cc         1 BD3       0.492500
      8 N13          6.8660    -0.7530    -0.0650 n2         1 BD3      -0.690100
      9 C15         -3.0930    -0.4990     0.0820 c3         1 BD3       0.040700
     10 C18          0.0410     1.4040    -0.9020 cc         1 BD3      -0.228600
     11 C23         -6.5320    -0.4120     1.9120 c3         1 BD3       0.038700
     12 C24         -7.2330     0.8830     1.5320 c2         1 BD3       0.396200
     13 C32          2.5430     2.3690     2.5000 c3         1 BD3      -0.080100
     14 C33          2.3730     4.5450     1.2270 c3         1 BD3      -0.080100
     15 C34          4.2300     2.9050     0.7110 c3         1 BD3      -0.080100
     16 N25         -8.0120     0.9880     0.5120 n2         1 BD3      -0.742100
     17 C20         -4.1730    -0.0200     1.0930 c          1 BD3       0.581100
     18 O21         -3.9950     0.9020     1.8800 o          1 BD3      -0.596100
     19 N16         -1.9850     0.4830    -0.0100 ns         1 BD3      -0.490900
     20 C29          0.5320     1.8440     0.3020 cd         1 BD3      -0.189000
     21 C28          1.8130     2.3950     0.0740 cd         1 BD3       0.259300
     22 N27          2.1470     2.3330    -1.2040 nc         1 BD3      -0.509800
     23 N26          1.0620     1.7170    -1.7940 na         1 BD3       0.170800
     24 C14         -2.5510    -1.9110     0.4540 c3         1 BD3      -0.041100
     25 O11          3.4980    -1.8120    -1.0340 os         1 BD3      -0.258000
     26 C10          4.5030    -1.3460    -0.2450 cc         1 BD3       0.308700
     27 N9           4.1000    -1.0780     0.9910 nd         1 BD3      -0.341000
     28 N8           2.7600    -1.3660     1.0280 nd         1 BD3      -0.367000
     29 H2          -2.4350    -3.2020    -1.9770 ha         1 BD3       0.118000
     30 H3           0.0690    -1.4710     1.0840 ha         1 BD3       0.136000
     31 H4          -0.4190    -3.7080    -3.3380 ha         1 BD3       0.124000
     32 H6           1.8320    -3.0610    -2.5370 ha         1 BD3       0.129000
     33 H12          5.9910    -1.4580    -1.8290 h4         1 BD3       0.041800
     34 HN13         6.5360    -0.5600     0.8940 hn         1 BD3       0.406400
     35 H15         -3.5830    -0.5620    -0.8990 h1         1 BD3       0.079700
     36 HN22        -5.4520    -1.4470     0.3600 hn         1 BD3       0.324500
     37 H23         -7.2450    -1.2440     1.8430 h1         1 BD3       0.077700
     38 H23A        -6.1970    -0.3480     2.9550 h1         1 BD3       0.077700
     39 H24         -7.0540     1.7460     2.1670 h4         1 BD3      -0.025200
     40 H30          0.2450     1.9520    -3.7210 h1         1 BD3       0.064033
     41 H30A         2.0250     1.7880    -3.6770 h1         1 BD3       0.064033
     42 H30B         0.9890     0.3570    -3.3990 h1         1 BD3       0.064033
     43 H32          3.2430     2.7830     3.2370 hc         1 BD3       0.037033
     44 H32A         1.5300     2.5260     2.8880 hc         1 BD3       0.037033
     45 H32B         2.7210     1.2890     2.4370 hc         1 BD3       0.037033
     46 H33          2.5130     5.0530     0.2650 hc         1 BD3       0.037033
     47 H33A         1.3250     4.6740     1.5260 hc         1 BD3       0.037033
     48 H33B         3.0030     5.0460     1.9720 hc         1 BD3       0.037033
     49 H34          4.5040     1.8520     0.5800 hc         1 BD3       0.037033
     50 H34A         4.4420     3.4310    -0.2280 hc         1 BD3       0.037033
     51 H34B         4.8840     3.3310     1.4820 hc         1 BD3       0.037033
     52 HN25        -8.3660     1.9550     0.4580 hn         1 BD3       0.380400
     53 HN16        -1.6240     0.8740     0.8500 hn         1 BD3       0.339500
     54 H29          0.0370     1.7880     1.2650 ha         1 BD3       0.151000
     55 H14         -3.3460    -2.6540     0.3190 hc         1 BD3       0.071200
     56 H14A        -2.3090    -1.9250     1.5250 hc         1 BD3       0.071200
     57 C12          5.8670    -1.1850    -0.7790 ce         1 BD3       0.384200
     58 C17         -1.2500     0.7230    -1.1490 c          1 BD3       0.647700
     59 N22         -5.3680    -0.7090     1.0510 ns         1 BD3      -0.493900
     60 C30          1.0830     1.4370    -3.2380 c3         1 BD3       0.072900
     61 C31          2.7320     3.0420     1.1130 c3         1 BD3      -0.068300
     62 O19         -1.6290     0.3680    -2.2550 o          1 BD3      -0.610100
@<TRIPOS>BOND
     1     1     2 ar  
     2     1     3 ar  
     3     1    24 1   
     4     2     4 ar  
     5     2    29 1   
     6     3     5 ar  
     7     3    30 1   
     8     4     6 ar  
     9     4    31 1   
    10     5     6 ar  
    11     5     7 1   
    12     6    32 1   
    13     7    25 1   
    14     7    28 2   
    15     8    34 1   
    16     8    57 2   
    17     9    17 1   
    18     9    19 1   
    19     9    24 1   
    20     9    35 1   
    21    10    20 2   
    22    10    23 1   
    23    10    58 1   
    24    11    12 1   
    25    11    37 1   
    26    11    38 1   
    27    11    59 1   
    28    12    16 2   
    29    12    39 1   
    30    13    43 1   
    31    13    44 1   
    32    13    45 1   
    33    13    61 1   
    34    14    46 1   
    35    14    47 1   
    36    14    48 1   
    37    14    61 1   
    38    15    49 1   
    39    15    50 1   
    40    15    51 1   
    41    15    61 1   
    42    16    52 1   
    43    17    18 2   
    44    17    59 1   
    45    19    53 1   
    46    19    58 1   
    47    20    21 1   
    48    20    54 1   
    49    21    22 2   
    50    21    61 1   
    51    22    23 1   
    52    23    60 1   
    53    24    55 1   
    54    24    56 1   
    55    25    26 1   
    56    26    27 2   
    57    26    57 1   
    58    27    28 1   
    59    33    57 1   
    60    36    59 1   
    61    40    60 1   
    62    41    60 1   
    63    42    60 1   
    64    58    62 2   
@<TRIPOS>SUBSTRUCTURE
     1 BD3         1 TEMP              0 ****  ****    0 ROOT
