@<TRIPOS>MOLECULE
BD4
   43    46     1     0     0
SMALL
abcg2


@<TRIPOS>ATOM
      1 O23         -4.6870    -2.0050     0.2280 o          1 BD4      -0.499000
      2 C20         -3.8680    -1.1180     0.2080 c          1 BD4       0.594600
      3 N21         -4.1450     0.2200     0.4380 ns         1 BD4      -0.490500
      4 C22         -3.0290     1.0210     0.3510 c          1 BD4       0.590600
      5 O24         -3.0110     2.2180     0.5070 o          1 BD4      -0.499000
      6 C13         -1.9060     0.1030     0.0320 ca         1 BD4      -0.081600
      7 C12         -2.4160    -1.1870    -0.0520 ca         1 BD4      -0.193600
      8 C11         -1.6220    -2.3030    -0.3330 ca         1 BD4       0.020700
      9 C15         -2.1800    -3.6910    -0.4070 c3         1 BD4      -0.052800
     10 C10         -0.2660    -2.0750    -0.5390 ca         1 BD4      -0.146000
     11 C8           0.2450    -0.7800    -0.4660 ca         1 BD4       0.019800
     12 C9          -0.5600     0.3530    -0.1680 cp         1 BD4      -0.030000
     13 C5           0.3220     1.4900    -0.1570 cp         1 BD4      -0.081000
     14 C6           0.1550     2.8570     0.0770 ca         1 BD4      -0.036000
     15 C1           1.2490     3.7050     0.0230 ca         1 BD4      -0.109300
     16 C14          1.1010     5.1790     0.2710 c3         1 BD4      -0.042800
     17 C2           2.5150     3.1690    -0.2700 ca         1 BD4      -0.074000
     18 C3           2.7140     1.8230    -0.5080 ca         1 BD4      -0.142000
     19 C4           1.6030     0.9870    -0.4510 ca         1 BD4      -0.004200
     20 N7           1.5330    -0.3750    -0.6510 na         1 BD4      -0.092600
     21 C16          2.6640    -1.2450    -0.8820 c3         1 BD4       0.079600
     22 C17          3.2770    -1.7670     0.4110 c3         1 BD4      -0.108400
     23 C18          4.4850    -2.6500     0.1420 c3         1 BD4       0.152800
     24 N19          5.0470    -3.1450     1.3900 n8         1 BD4      -0.992200
     25 H21         -5.0700     0.5720     0.6410 hn         1 BD4       0.345500
     26 H151        -2.6400    -3.9850     0.5350 hc         1 BD4       0.054700
     27 H152        -2.9470    -3.7720    -1.1770 hc         1 BD4       0.054700
     28 H153        -1.3940    -4.4080    -0.6370 hc         1 BD4       0.054700
     29 H10          0.3870    -2.9130    -0.7480 ha         1 BD4       0.124000
     30 H6          -0.8250     3.2510     0.3060 ha         1 BD4       0.142000
     31 H141         1.3810     5.7610    -0.6090 hc         1 BD4       0.042700
     32 H142         0.0750     5.4380     0.5280 hc         1 BD4       0.042700
     33 H143         1.7420     5.5110     1.0890 hc         1 BD4       0.042700
     34 H2           3.3690     3.8360    -0.3070 ha         1 BD4       0.111000
     35 H3           3.7040     1.4460    -0.7300 ha         1 BD4       0.117000
     36 H161         2.3380    -2.0730    -1.5150 h1         1 BD4       0.058200
     37 H162         3.4040    -0.6930    -1.4630 h1         1 BD4       0.058200
     38 H171         3.5740    -0.9190     1.0360 hc         1 BD4       0.062700
     39 H172         2.5300    -2.3330     0.9750 hc         1 BD4       0.062700
     40 H181         4.1730    -3.5100    -0.4580 h1         1 BD4       0.026700
     41 H182         5.2050    -2.0910    -0.4740 h1         1 BD4       0.026700
     42 H191         5.8340    -3.7470     1.1870 hn         1 BD4       0.395500
     43 H192         5.4300    -2.3670     1.9130 hn         1 BD4       0.395500
@<TRIPOS>BOND
     1     1     2 2   
     2     2     3 1   
     3     2     7 1   
     4     3     4 1   
     5     3    25 1   
     6     4     5 2   
     7     4     6 1   
     8     6     7 ar  
     9     6    12 ar  
    10     7     8 ar  
    11     8     9 1   
    12     8    10 ar  
    13     9    26 1   
    14     9    27 1   
    15     9    28 1   
    16    10    11 ar  
    17    10    29 1   
    18    11    12 ar  
    19    11    20 1   
    20    12    13 1   
    21    13    14 ar  
    22    13    19 ar  
    23    14    15 ar  
    24    14    30 1   
    25    15    16 1   
    26    15    17 ar  
    27    16    31 1   
    28    16    32 1   
    29    16    33 1   
    30    17    18 ar  
    31    17    34 1   
    32    18    19 ar  
    33    18    35 1   
    34    19    20 1   
    35    20    21 1   
    36    21    22 1   
    37    21    36 1   
    38    21    37 1   
    39    22    23 1   
    40    22    38 1   
    41    22    39 1   
    42    23    24 1   
    43    23    40 1   
    44    23    41 1   
    45    24    42 1   
    46    24    43 1   
@<TRIPOS>SUBSTRUCTURE
     1 BD4         1 TEMP              0 ****  ****    0 ROOT
