@<TRIPOS>MOLECULE
BD4
   43    46     1     0     0
SMALL
No Charge or Current Charge


@<TRIPOS>ATOM
      1 O23         -4.8040    -1.9390     0.1850 o          1 BD4      -0.499000
      2 C20         -3.9480    -1.0700     0.1640 c          1 BD4       0.594600
      3 N21         -4.1400     0.2660     0.3550 ns         1 BD4      -0.490500
      4 C22         -3.0340     1.0600     0.2880 c          1 BD4       0.590600
      5 O24         -3.0090     2.2690     0.4300 o          1 BD4      -0.499000
      6 C13         -1.9340     0.0840     0.0060 ca         1 BD4      -0.081600
      7 C12         -2.4780    -1.2010    -0.0700 ca         1 BD4      -0.193600
      8 C11         -1.6810    -2.3400    -0.3240 ca         1 BD4       0.020700
      9 C15         -2.2840    -3.7350    -0.4000 c3         1 BD4      -0.052800
     10 C10         -0.2900    -2.1440    -0.5050 ca         1 BD4      -0.146000
     11 C8           0.2270    -0.8320    -0.4260 ca         1 BD4       0.019800
     12 C9          -0.5500     0.3080    -0.1710 cp         1 BD4      -0.030000
     13 C5           0.3490     1.4800    -0.1480 cp         1 BD4      -0.081000
     14 C6           0.1390     2.8600     0.0670 ca         1 BD4      -0.036000
     15 C1           1.2460     3.7420     0.0340 ca         1 BD4      -0.109300
     16 C14          1.0320     5.2310     0.2600 c3         1 BD4      -0.042800
     17 C2           2.5500     3.2450    -0.2140 ca         1 BD4      -0.074000
     18 C3           2.7650     1.8700    -0.4280 ca         1 BD4      -0.142000
     19 C4           1.6490     1.0260    -0.3910 ca         1 BD4      -0.004200
     20 N7           1.5400    -0.3610    -0.5610 na         1 BD4      -0.092600
     21 C16          2.6900    -1.2350    -0.8520 c3         1 BD4       0.079600
     22 C17          3.3540    -1.7920     0.4230 c3         1 BD4      -0.108400
     23 C18          4.5550    -2.7040     0.1120 c3         1 BD4       0.152800
     24 N19          5.1620    -3.2280     1.3470 n8         1 BD4      -0.992200
     25 H21         -5.0550     0.6480     0.5370 hn         1 BD4       0.345500
     26 H151        -2.7740    -4.0020     0.5430 hc         1 BD4       0.054700
     27 H152        -3.0320    -3.7950    -1.1990 hc         1 BD4       0.054700
     28 H153        -1.5210    -4.4960    -0.6040 hc         1 BD4       0.054700
     29 H10          0.3660    -2.9880    -0.6990 ha         1 BD4       0.124000
     30 H6          -0.8490     3.2580     0.2570 ha         1 BD4       0.142000
     31 H141         0.7920     5.7390    -0.6810 hc         1 BD4       0.042700
     32 H142         0.2080     5.4150     0.9600 hc         1 BD4       0.042700
     33 H143         1.9280     5.7060     0.6780 hc         1 BD4       0.042700
     34 H2           3.3960     3.9280    -0.2400 ha         1 BD4       0.111000
     35 H3           3.7650     1.4850    -0.6150 ha         1 BD4       0.117000
     36 H161         2.3530    -2.0660    -1.4840 h1         1 BD4       0.058200
     37 H162         3.4290    -0.6680    -1.4330 h1         1 BD4       0.058200
     38 H171         3.6830    -0.9550     1.0500 hc         1 BD4       0.062700
     39 H172         2.6090    -2.3550     0.9980 hc         1 BD4       0.062700
     40 H181         4.2260    -3.5520    -0.5050 h1         1 BD4       0.026700
     41 H182         5.3160    -2.1410    -0.4460 h1         1 BD4       0.026700
     42 H191         5.9900    -3.7860     1.1020 hn         1 BD4       0.395500
     43 H192         5.5520    -2.4460     1.8860 hn         1 BD4       0.395500
@<TRIPOS>BOND
     1     1     2 2   
     2     2     3 1   
     3     2     7 1   
     4     3     4 1   
     5     3    25 1   
     6     4     5 2   
     7     4     6 1   
     8     6     7 ar  
     9     6    12 ar  
    10     7     8 ar  
    11     8     9 1   
    12     8    10 ar  
    13     9    26 1   
    14     9    27 1   
    15     9    28 1   
    16    10    11 ar  
    17    10    29 1   
    18    11    12 ar  
    19    11    20 1   
    20    12    13 1   
    21    13    14 ar  
    22    13    19 ar  
    23    14    15 ar  
    24    14    30 1   
    25    15    16 1   
    26    15    17 ar  
    27    16    31 1   
    28    16    32 1   
    29    16    33 1   
    30    17    18 ar  
    31    17    34 1   
    32    18    19 ar  
    33    18    35 1   
    34    19    20 1   
    35    20    21 1   
    36    21    22 1   
    37    21    36 1   
    38    21    37 1   
    39    22    23 1   
    40    22    38 1   
    41    22    39 1   
    42    23    24 1   
    43    23    40 1   
    44    23    41 1   
    45    24    42 1   
    46    24    43 1   
@<TRIPOS>SUBSTRUCTURE
     1 BD4         1 TEMP              0 ****  ****    0 ROOT
