@<TRIPOS>MOLECULE
BD5
   80    83     1     0     0
SMALL
No Charge or Current Charge


@<TRIPOS>ATOM
      1 C43         -3.9230    -2.3040    -0.8120 ca         1 BD5      -0.073000
      2 C42         -2.7380    -2.4880    -1.5460 ca         1 BD5      -0.175000
      3 C41         -2.6290    -1.9760    -2.8460 ca         1 BD5       0.112100
      4 O44         -1.4780    -2.1590    -3.5510 oh         1 BD5      -0.547100
      5 C40         -3.7050    -1.2780    -3.4190 ca         1 BD5      -0.175000
      6 C39         -4.8900    -1.0870    -2.6850 ca         1 BD5      -0.073000
      7 C38         -5.0050    -1.5980    -1.3770 ca         1 BD5      -0.083300
      8 C37         -6.2790    -1.3660    -0.5700 c3         1 BD5      -0.030100
      9 C35         -6.3080     0.0090     0.1480 c3         1 BD5      -0.047300
     10 C36         -7.5850     0.1650     1.0250 c          1 BD5       0.714000
     11 O45         -8.4470     0.9490     0.6520 o          1 BD5      -0.720500
     12 O46         -7.6390    -0.4340     2.0910 o          1 BD5      -0.720500
     13 N33         -5.0840     0.2240     0.9590 ns         1 BD5      -0.437900
     14 C32         -3.9380     0.8540     0.5120 c          1 BD5       0.596100
     15 O34         -3.8920     1.4540    -0.5560 o          1 BD5      -0.630100
     16 C24         -2.7170     0.7300     1.4630 c3         1 BD5       0.021700
     17 C25         -2.8140     1.7310     2.6430 c3         1 BD5      -0.056100
     18 C26         -1.5790     1.7250     3.5380 ca         1 BD5      -0.058300
     19 C31         -0.6500     2.7830     3.4770 ca         1 BD5      -0.104000
     20 C30          0.4990     2.7660     4.2860 ca         1 BD5      -0.114500
     21 C29          0.7250     1.6930     5.1640 ca         1 BD5      -0.123000
     22 C28         -0.2000     0.6380     5.2330 ca         1 BD5      -0.114500
     23 C27         -1.3490     0.6540     4.4220 ca         1 BD5      -0.104000
     24 N22         -1.4580     0.9320     0.7080 ns         1 BD5      -0.475900
     25 C21         -0.3270     0.1510     0.8310 c          1 BD5       0.601100
     26 O23         -0.3040    -0.8540     1.5330 o          1 BD5      -0.615100
     27 C12          0.8990     0.6390     0.0100 c3         1 BD5       0.039700
     28 C13          1.5050     1.9230     0.6370 c3         1 BD5      -0.051100
     29 C14          2.7220     2.4530    -0.1130 ca         1 BD5      -0.115300
     30 C19          2.5550     3.2260    -1.2790 ca         1 BD5      -0.060000
     31 C18          3.6780     3.7080    -1.9740 ca         1 BD5      -0.175500
     32 C17          4.9700     3.4210    -1.5100 ca         1 BD5       0.134100
     33 O20          6.0520     3.8930    -2.1910 oh         1 BD5      -0.538100
     34 C16          5.1440     2.6530    -0.3480 ca         1 BD5      -0.175500
     35 C15          4.0230     2.1700     0.3500 ca         1 BD5      -0.060000
     36 N10          1.9130    -0.4350    -0.0880 ns         1 BD5      -0.473900
     37 C9           2.7000    -0.6790    -1.1770 c          1 BD5       0.640100
     38 O11          2.6310    -0.0920    -2.2450 o          1 BD5      -0.540000
     39 O8           3.5460    -1.7020    -0.8840 os         1 BD5      -0.460100
     40 C7           4.4710    -2.1070    -1.9050 c3         1 BD5       0.228900
     41 C3           5.3300    -3.2380    -1.3550 ca         1 BD5      -0.090300
     42 C2           4.9520    -4.5810    -1.5540 ca         1 BD5      -0.088000
     43 C1           5.7470    -5.6240    -1.0460 ca         1 BD5      -0.117000
     44 C6           6.9230    -5.3310    -0.3360 ca         1 BD5      -0.106000
     45 C5           7.3040    -3.9940    -0.1320 ca         1 BD5      -0.117000
     46 C4           6.5100    -2.9500    -0.6400 ca         1 BD5      -0.088000
     47 H43         -3.9960    -2.6990     0.1980 ha         1 BD5       0.112500
     48 H42         -1.9040    -3.0270    -1.1020 ha         1 BD5       0.108000
     49 HO44        -1.5850    -1.7410    -4.4320 ho         1 BD5       0.453000
     50 H40         -3.6280    -0.8760    -4.4260 ha         1 BD5       0.108000
     51 H39         -5.7150    -0.5360    -3.1290 ha         1 BD5       0.112500
     52 H37         -7.1570    -1.4420    -1.2240 hc         1 BD5       0.057700
     53 H37A        -6.3940    -2.1610     0.1770 hc         1 BD5       0.057700
     54 H35         -6.3550     0.7920    -0.6190 h1         1 BD5       0.071700
     55 HN33        -5.0410    -0.2150     1.8710 hn         1 BD5       0.294500
     56 H24         -2.7300    -0.2920     1.8650 h1         1 BD5       0.082700
     57 H25         -2.9810     2.7380     2.2390 hc         1 BD5       0.084200
     58 H25A        -3.7050     1.4980     3.2400 hc         1 BD5       0.084200
     59 H31         -0.8120     3.6160     2.7970 ha         1 BD5       0.112000
     60 H30          1.2150     3.5830     4.2310 ha         1 BD5       0.103000
     61 H29          1.6140     1.6790     5.7900 ha         1 BD5       0.100000
     62 H28         -0.0260    -0.1940     5.9120 ha         1 BD5       0.103000
     63 H27         -2.0560    -0.1710     4.4760 ha         1 BD5       0.112000
     64 HN22        -1.4130     1.7110     0.0610 hn         1 BD5       0.332500
     65 H12          0.5350     0.8720    -0.9990 h1         1 BD5       0.093700
     66 H13          0.7340     2.7030     0.6770 hc         1 BD5       0.065200
     67 H13A         1.7690     1.7150     1.6810 hc         1 BD5       0.065200
     68 H19          1.5560     3.4490    -1.6490 ha         1 BD5       0.115000
     69 H18          3.5440     4.3020    -2.8740 ha         1 BD5       0.116000
     70 HO20         6.8630     3.6000    -1.7240 ho         1 BD5       0.459000
     71 H16          6.1420     2.4240     0.0180 ha         1 BD5       0.116000
     72 H15          4.1660     1.5720     1.2470 ha         1 BD5       0.115000
     73 HN10         2.0570    -1.0440     0.7070 hn         1 BD5       0.336500
     74 H7           3.9360    -2.4520    -2.8000 h1         1 BD5       0.058200
     75 H7A          5.1160    -1.2690    -2.2000 h1         1 BD5       0.058200
     76 H2           4.0410    -4.8170    -2.1000 ha         1 BD5       0.116500
     77 H1           5.4500    -6.6590    -1.2020 ha         1 BD5       0.109500
     78 H6           7.5380    -6.1380     0.0570 ha         1 BD5       0.108000
     79 H5           8.2140    -3.7650     0.4190 ha         1 BD5       0.109500
     80 H4           6.8100    -1.9170    -0.4760 ha         1 BD5       0.116500
@<TRIPOS>BOND
     1     1     2 ar  
     2     1     7 ar  
     3     1    47 1   
     4     2     3 ar  
     5     2    48 1   
     6     3     4 1   
     7     3     5 ar  
     8     4    49 1   
     9     5     6 ar  
    10     5    50 1   
    11     6     7 ar  
    12     6    51 1   
    13     7     8 1   
    14     8     9 1   
    15     8    52 1   
    16     8    53 1   
    17     9    10 1   
    18     9    13 1   
    19     9    54 1   
    20    10    11 1   
    21    10    12 1   
    22    13    14 1   
    23    13    55 1   
    24    14    15 2   
    25    14    16 1   
    26    16    17 1   
    27    16    24 1   
    28    16    56 1   
    29    17    18 1   
    30    17    57 1   
    31    17    58 1   
    32    18    19 ar  
    33    18    23 ar  
    34    19    20 ar  
    35    19    59 1   
    36    20    21 ar  
    37    20    60 1   
    38    21    22 ar  
    39    21    61 1   
    40    22    23 ar  
    41    22    62 1   
    42    23    63 1   
    43    24    25 1   
    44    24    64 1   
    45    25    26 2   
    46    25    27 1   
    47    27    28 1   
    48    27    36 1   
    49    27    65 1   
    50    28    29 1   
    51    28    66 1   
    52    28    67 1   
    53    29    30 ar  
    54    29    35 ar  
    55    30    31 ar  
    56    30    68 1   
    57    31    32 ar  
    58    31    69 1   
    59    32    33 1   
    60    32    34 ar  
    61    33    70 1   
    62    34    35 ar  
    63    34    71 1   
    64    35    72 1   
    65    36    37 1   
    66    36    73 1   
    67    37    38 2   
    68    37    39 1   
    69    39    40 1   
    70    40    41 1   
    71    40    74 1   
    72    40    75 1   
    73    41    42 ar  
    74    41    46 ar  
    75    42    43 ar  
    76    42    76 1   
    77    43    44 ar  
    78    43    77 1   
    79    44    45 ar  
    80    44    78 1   
    81    45    46 ar  
    82    45    79 1   
    83    46    80 1   
@<TRIPOS>SUBSTRUCTURE
     1 BD5         1 TEMP              0 ****  ****    0 ROOT
