@<TRIPOS>MOLECULE
BD5
   80    83     1     0     0
SMALL
bcc


@<TRIPOS>ATOM
      1 C43         -4.8860    -3.0770    -0.3410 ca         1 BD5      -0.091000
      2 C42         -4.0790    -4.0230    -0.9550 ca         1 BD5      -0.193000
      3 C41         -4.0360    -4.1020    -2.3440 ca         1 BD5       0.112100
      4 O44         -3.2360    -5.0370    -2.9020 oh         1 BD5      -0.508100
      5 C40         -4.8140    -3.2280    -3.0990 ca         1 BD5      -0.193000
      6 C39         -5.6150    -2.2900    -2.4660 ca         1 BD5      -0.091000
      7 C38         -5.6680    -2.1920    -1.0780 ca         1 BD5      -0.083300
      8 C37         -6.5040    -1.1360    -0.4130 c3         1 BD5      -0.030100
      9 C35         -5.8110     0.2310    -0.3850 c3         1 BD5      -0.047300
     10 C36         -6.7450     1.3400     0.1740 c          1 BD5       0.924600
     11 O45         -7.8390     1.4500    -0.4130 o          1 BD5      -0.825800
     12 O46         -6.3290     2.0150     1.1300 o          1 BD5      -0.825800
     13 N33         -4.5740     0.1370     0.3520 ns         1 BD5      -0.504900
     14 C32         -3.5340     0.9440     0.1340 c          1 BD5       0.663100
     15 O34         -3.4000     1.6540    -0.8550 o          1 BD5      -0.630100
     16 C24         -2.4900     0.9570     1.2450 c3         1 BD5       0.021700
     17 C25         -2.8450     2.0860     2.2330 c3         1 BD5      -0.056100
     18 C26         -1.8590     2.1610     3.3620 ca         1 BD5      -0.058300
     19 C31         -0.8200     3.0850     3.3420 ca         1 BD5      -0.122000
     20 C30          0.1170     3.1260     4.3670 ca         1 BD5      -0.132500
     21 C29          0.0240     2.2390     5.4300 ca         1 BD5      -0.141000
     22 C28         -1.0120     1.3130     5.4620 ca         1 BD5      -0.132500
     23 C27         -1.9430     1.2760     4.4350 ca         1 BD5      -0.122000
     24 N22         -1.1830     1.1430     0.6720 ns         1 BD5      -0.542900
     25 C21         -0.1120     0.3980     0.9770 c          1 BD5       0.668100
     26 O23         -0.1250    -0.5500     1.7460 o          1 BD5      -0.615100
     27 C12          1.1820     0.8430     0.3040 c3         1 BD5       0.039700
     28 C13          2.0080     1.6910     1.2920 c3         1 BD5      -0.051100
     29 C14          3.3360     2.0750     0.7110 ca         1 BD5      -0.115300
     30 C19          3.4540     3.1680    -0.1440 ca         1 BD5      -0.078000
     31 C18          4.6590     3.4980    -0.7400 ca         1 BD5      -0.193500
     32 C17          5.7900     2.7230    -0.4920 ca         1 BD5       0.134100
     33 O20          6.9430     3.0780    -1.0970 oh         1 BD5      -0.499100
     34 C16          5.6940     1.6320     0.3640 ca         1 BD5      -0.193500
     35 C15          4.4760     1.3170     0.9520 ca         1 BD5      -0.078000
     36 N10          1.9100    -0.3210    -0.1290 ns         1 BD5      -0.540900
     37 C9           2.5920    -0.3460    -1.2930 c          1 BD5       0.756100
     38 O11          2.4700     0.4510    -2.1980 o          1 BD5      -0.589000
     39 O8           3.4140    -1.4010    -1.3290 os         1 BD5      -0.436900
     40 C7           4.2260    -1.5600    -2.4940 c3         1 BD5       0.205700
     41 C3           5.3460    -2.4910    -2.1350 ca         1 BD5      -0.090300
     42 C2           5.4490    -3.7450    -2.7260 ca         1 BD5      -0.106000
     43 C1           6.4960    -4.5980    -2.3960 ca         1 BD5      -0.135000
     44 C6           7.4450    -4.2030    -1.4650 ca         1 BD5      -0.124000
     45 C5           7.3470    -2.9510    -0.8670 ca         1 BD5      -0.135000
     46 C4           6.3050    -2.1010    -1.2020 ca         1 BD5      -0.106000
     47 H43         -4.9080    -3.0360     0.7420 ha         1 BD5       0.130500
     48 H42         -3.4820    -4.7020    -0.3580 ha         1 BD5       0.126000
     49 HO44        -3.2950    -4.9940    -3.8620 ho         1 BD5       0.414000
     50 H40         -4.7990    -3.2810    -4.1830 ha         1 BD5       0.126000
     51 H39         -6.2130    -1.6200    -3.0740 ha         1 BD5       0.130500
     52 H37         -7.4510    -1.0140    -0.9400 hc         1 BD5       0.057700
     53 H37A        -6.7510    -1.4410     0.6080 hc         1 BD5       0.057700
     54 H35         -5.5610     0.4990    -1.4150 h1         1 BD5       0.071700
     55 HN33        -4.6230    -0.3150     1.2520 hn         1 BD5       0.294500
     56 H24         -2.4880     0.0050     1.7780 h1         1 BD5       0.082700
     57 H25         -2.8710     3.0330     1.6880 hc         1 BD5       0.084200
     58 H25A        -3.8550     1.9090     2.6070 hc         1 BD5       0.084200
     59 H31         -0.7450     3.7890     2.5220 ha         1 BD5       0.130000
     60 H30          0.9190     3.8520     4.3350 ha         1 BD5       0.121000
     61 H29          0.7510     2.2690     6.2310 ha         1 BD5       0.118000
     62 H28         -1.0960     0.6210     6.2910 ha         1 BD5       0.121000
     63 H27         -2.7470     0.5490     4.4670 ha         1 BD5       0.130000
     64 HN22        -1.0900     1.8780    -0.0120 hn         1 BD5       0.332500
     65 H12          0.9580     1.4440    -0.5780 h1         1 BD5       0.093700
     66 H13          1.4300     2.5790     1.5580 hc         1 BD5       0.065200
     67 H13A         2.1440     1.1240     2.2160 hc         1 BD5       0.065200
     68 H19          2.5830     3.7800    -0.3530 ha         1 BD5       0.133000
     69 H18          4.7270     4.3540    -1.4000 ha         1 BD5       0.134000
     70 HO20         7.6520     2.4740    -0.8490 ho         1 BD5       0.420000
     71 H16          6.5680     1.0270     0.5810 ha         1 BD5       0.134000
     72 H15          4.4260     0.4660     1.6200 ha         1 BD5       0.133000
     73 HN10         2.1450    -1.0030     0.5770 hn         1 BD5       0.336500
     74 H7           3.6320    -1.9690    -3.3150 h1         1 BD5       0.058200
     75 H7A          4.6210    -0.5940    -2.8120 h1         1 BD5       0.058200
     76 H2           4.7050    -4.0600    -3.4490 ha         1 BD5       0.134500
     77 H1           6.5650    -5.5710    -2.8630 ha         1 BD5       0.127500
     78 H6           8.2590    -4.8670    -1.2040 ha         1 BD5       0.126000
     79 H5           8.0880    -2.6370    -0.1420 ha         1 BD5       0.127500
     80 H4           6.2380    -1.1240    -0.7380 ha         1 BD5       0.134500
@<TRIPOS>BOND
     1     1     2 ar  
     2     1     7 ar  
     3     1    47 1   
     4     2     3 ar  
     5     2    48 1   
     6     3     4 1   
     7     3     5 ar  
     8     4    49 1   
     9     5     6 ar  
    10     5    50 1   
    11     6     7 ar  
    12     6    51 1   
    13     7     8 1   
    14     8     9 1   
    15     8    52 1   
    16     8    53 1   
    17     9    10 1   
    18     9    13 1   
    19     9    54 1   
    20    10    11 1   
    21    10    12 1   
    22    13    14 1   
    23    13    55 1   
    24    14    15 2   
    25    14    16 1   
    26    16    17 1   
    27    16    24 1   
    28    16    56 1   
    29    17    18 1   
    30    17    57 1   
    31    17    58 1   
    32    18    19 ar  
    33    18    23 ar  
    34    19    20 ar  
    35    19    59 1   
    36    20    21 ar  
    37    20    60 1   
    38    21    22 ar  
    39    21    61 1   
    40    22    23 ar  
    41    22    62 1   
    42    23    63 1   
    43    24    25 1   
    44    24    64 1   
    45    25    26 2   
    46    25    27 1   
    47    27    28 1   
    48    27    36 1   
    49    27    65 1   
    50    28    29 1   
    51    28    66 1   
    52    28    67 1   
    53    29    30 ar  
    54    29    35 ar  
    55    30    31 ar  
    56    30    68 1   
    57    31    32 ar  
    58    31    69 1   
    59    32    33 1   
    60    32    34 ar  
    61    33    70 1   
    62    34    35 ar  
    63    34    71 1   
    64    35    72 1   
    65    36    37 1   
    66    36    73 1   
    67    37    38 2   
    68    37    39 1   
    69    39    40 1   
    70    40    41 1   
    71    40    74 1   
    72    40    75 1   
    73    41    42 ar  
    74    41    46 ar  
    75    42    43 ar  
    76    42    76 1   
    77    43    44 ar  
    78    43    77 1   
    79    44    45 ar  
    80    44    78 1   
    81    45    46 ar  
    82    45    79 1   
    83    46    80 1   
@<TRIPOS>SUBSTRUCTURE
     1 BD5         1 TEMP              0 ****  ****    0 ROOT
