@<TRIPOS>MOLECULE
BD6
   85    89     1     0     0
SMALL
No Charge or Current Charge


@<TRIPOS>ATOM
      1 CD2         -2.3380     2.1490    -1.0920 ca         1 BD6      -0.103800
      2 CE3         -3.2390     1.7700    -2.0970 ca         1 BD6      -0.077000
      3 CZ3         -2.7030     1.3750    -3.3420 ca         1 BD6      -0.144000
      4 CH2         -1.3020     1.3620    -3.5480 ca         1 BD6      -0.123000
      5 CZ2         -0.4250     1.7410    -2.5080 ca         1 BD6      -0.119000
      6 CE2         -0.9880     2.1290    -1.2880 ca         1 BD6      -0.053200
      7 NE1         -0.3540     2.5320    -0.1300 na         1 BD6      -0.202700
      8 CD1         -1.3070     2.8470     0.8620 cc         1 BD6      -0.126100
      9 CG          -2.5400     2.5980     0.2680 cd         1 BD6      -0.175400
     10 CB          -3.8820     2.6770     0.9610 c3         1 BD6      -0.012200
     11 CA          -4.2000     1.4250     1.8270 c3         1 BD6       0.020700
     12 C           -5.7240     1.2960     2.1080 c          1 BD6       0.599100
     13 O           -6.4150     0.3940     1.6430 o          1 BD6      -0.577100
     14 NBC         -6.2550     2.2760     2.9420 ns         1 BD6      -0.384400
     15 OAF         -7.6880     2.4390     3.0840 oh         1 BD6      -0.416100
     16 N           -3.6630     0.1960     1.1880 ns         1 BD6      -0.481900
     17 CBK         -2.4300    -0.3550     1.4830 c          1 BD6       0.588100
     18 OAD         -1.8130    -0.0100     2.4830 o          1 BD6      -0.591100
     19 CBU         -1.8600    -1.4210     0.4920 c3         1 BD6       0.035700
     20 CAZ         -2.9420    -2.1800    -0.3390 c3         1 BD6      -0.038100
     21 CBN         -2.3270    -3.0140    -1.4580 ca         1 BD6      -0.087300
     22 CAQ         -1.9330    -4.3470    -1.2330 ca         1 BD6      -0.107000
     23 CAK         -1.3470    -5.0980    -2.2670 ca         1 BD6      -0.115000
     24 CAH         -1.1600    -4.5240    -3.5350 ca         1 BD6      -0.103000
     25 CAL         -1.5610    -3.1980    -3.7700 ca         1 BD6      -0.115000
     26 CAR         -2.1380    -2.4450    -2.7330 ca         1 BD6      -0.107000
     27 NBV         -0.8420    -2.3160     1.1540 n          1 BD6      -0.380800
     28 CAA         -1.3730    -3.2980     2.1360 c3         1 BD6       0.084300
     29 CBL          0.4980    -1.8730     1.3390 c          1 BD6       0.608100
     30 OAE          1.1310    -2.2300     2.3290 o          1 BD6      -0.596100
     31 CBT          1.2020    -1.0550     0.2060 c3         1 BD6       0.044700
     32 CAY          1.3600    -1.9300    -1.0660 c3         1 BD6      -0.037100
     33 CBO          1.8760    -1.2070    -2.2840 cc         1 BD6      -0.209300
     34 CAV          3.1060    -0.6490    -2.5330 cd         1 BD6       0.231900
     35 NBF          3.1520    -0.1320    -3.8130 nd         1 BD6      -0.683000
     36 CAS          1.9650    -0.3780    -4.3480 cc         1 BD6       0.396400
     37 NBB          1.1640    -1.0400    -3.4510 na         1 BD6      -0.288500
     38 NBD          2.5130    -0.5510     0.6760 ns         1 BD6      -0.464900
     39 CBI          2.9710     0.7270     0.5350 c          1 BD6       0.650100
     40 OAB          2.3490     1.6510     0.0350 o          1 BD6      -0.582000
     41 OBH          4.2170     0.8080     1.0710 os         1 BD6      -0.448100
     42 CAX          4.8750     2.0840     1.0220 c3         1 BD6       0.228900
     43 CBM          6.2500     1.9380     1.6600 ca         1 BD6      -0.108300
     44 CAO          7.3580     1.5510     0.8800 ca         1 BD6      -0.084000
     45 CAI          8.6280     1.4180     1.4690 ca         1 BD6      -0.117500
     46 CAG          8.7970     1.6680     2.8410 ca         1 BD6      -0.098000
     47 CAJ          7.6950     2.0520     3.6240 ca         1 BD6      -0.117500
     48 CAP          6.4250     2.1860     3.0370 ca         1 BD6      -0.084000
     49 HE3         -4.3130     1.7840    -1.9300 ha         1 BD6       0.117000
     50 HZ3         -3.3710     1.0800    -4.1480 ha         1 BD6       0.112000
     51 HH2         -0.9010     1.0620    -4.5130 ha         1 BD6       0.105000
     52 HZ2          0.6540     1.7360    -2.6500 ha         1 BD6       0.134000
     53 HNE1         0.6590     2.5240     0.0000 hn         1 BD6       0.379000
     54 HD1         -1.0440     3.1580     1.8690 h4         1 BD6       0.220000
     55 HB          -3.9300     3.5750     1.5890 hc         1 BD6       0.060700
     56 HBA         -4.6700     2.7960     0.2080 hc         1 BD6       0.060700
     57 HA          -3.7140     1.5520     2.8030 h1         1 BD6       0.088700
     58 HNBC        -5.6840     3.0810     3.1990 hn         1 BD6       0.343500
     59 HOAF        -7.8260     2.4580     4.0610 ho         1 BD6       0.445000
     60 HN          -4.1420    -0.1550     0.3680 hn         1 BD6       0.331500
     61 HBU         -1.3520    -0.8100    -0.2610 h1         1 BD6       0.088700
     62 HAZ         -3.5710    -2.7990     0.3100 hc         1 BD6       0.061200
     63 HAZA        -3.6240    -1.4570    -0.8010 hc         1 BD6       0.061200
     64 HAQ         -2.0750    -4.8040    -0.2570 ha         1 BD6       0.118500
     65 HAK         -1.0410    -6.1260    -2.0860 ha         1 BD6       0.115500
     66 HAH         -0.7110    -5.1070    -4.3360 ha         1 BD6       0.118000
     67 HAL         -1.4270    -2.7570    -4.7560 ha         1 BD6       0.115500
     68 HAR         -2.4430    -1.4180    -2.9230 ha         1 BD6       0.118500
     69 HAA         -0.7170    -4.1780     2.1680 h1         1 BD6       0.046700
     70 HAAA        -1.4050    -2.8430     3.1350 h1         1 BD6       0.046700
     71 HAAB        -2.3810    -3.6330     1.8740 h1         1 BD6       0.046700
     72 HBT          0.5700    -0.1920    -0.0280 h1         1 BD6       0.089700
     73 HAY          2.0290    -2.7690    -0.8340 hc         1 BD6       0.076200
     74 HAYA         0.3940    -2.3870    -1.3070 hc         1 BD6       0.076200
     75 HAV          3.9610    -0.5980    -1.8690 h4         1 BD6       0.039100
     76 HAS          1.6350    -0.1180    -5.3470 h5         1 BD6       0.055100
     77 HNBB         0.2180    -1.3470    -3.6340 hn         1 BD6       0.356000
     78 HNBD         3.1300    -1.1840     1.1700 hn         1 BD6       0.340500
     79 HAX          4.9870     2.4240    -0.0170 h1         1 BD6       0.058200
     80 HAXA         4.2950     2.8430     1.5640 h1         1 BD6       0.058200
     81 HAO          7.2350     1.3520    -0.1830 ha         1 BD6       0.123500
     82 HAI          9.4790     1.1190     0.8620 ha         1 BD6       0.114500
     83 HAG          9.7800     1.5640     3.2970 ha         1 BD6       0.112000
     84 HAJ          7.8250     2.2450     4.6870 ha         1 BD6       0.114500
     85 HAP          5.5770     2.4810     3.6510 ha         1 BD6       0.123500
@<TRIPOS>BOND
     1     1     2 ar  
     2     1     6 ar  
     3     1     9 1   
     4     2     3 ar  
     5     2    49 1   
     6     3     4 ar  
     7     3    50 1   
     8     4     5 ar  
     9     4    51 1   
    10     5     6 ar  
    11     5    52 1   
    12     6     7 1   
    13     7     8 1   
    14     7    53 1   
    15     8     9 2   
    16     8    54 1   
    17     9    10 1   
    18    10    11 1   
    19    10    55 1   
    20    10    56 1   
    21    11    12 1   
    22    11    16 1   
    23    11    57 1   
    24    12    13 2   
    25    12    14 1   
    26    14    15 1   
    27    14    58 1   
    28    15    59 1   
    29    16    17 1   
    30    16    60 1   
    31    17    18 2   
    32    17    19 1   
    33    19    20 1   
    34    19    27 1   
    35    19    61 1   
    36    20    21 1   
    37    20    62 1   
    38    20    63 1   
    39    21    22 ar  
    40    21    26 ar  
    41    22    23 ar  
    42    22    64 1   
    43    23    24 ar  
    44    23    65 1   
    45    24    25 ar  
    46    24    66 1   
    47    25    26 ar  
    48    25    67 1   
    49    26    68 1   
    50    27    28 1   
    51    27    29 1   
    52    28    69 1   
    53    28    70 1   
    54    28    71 1   
    55    29    30 2   
    56    29    31 1   
    57    31    32 1   
    58    31    38 1   
    59    31    72 1   
    60    32    33 1   
    61    32    73 1   
    62    32    74 1   
    63    33    34 2   
    64    33    37 1   
    65    34    35 1   
    66    34    75 1   
    67    35    36 2   
    68    36    37 1   
    69    36    76 1   
    70    37    77 1   
    71    38    39 1   
    72    38    78 1   
    73    39    40 2   
    74    39    41 1   
    75    41    42 1   
    76    42    43 1   
    77    42    79 1   
    78    42    80 1   
    79    43    44 ar  
    80    43    48 ar  
    81    44    45 ar  
    82    44    81 1   
    83    45    46 ar  
    84    45    82 1   
    85    46    47 ar  
    86    46    83 1   
    87    47    48 ar  
    88    47    84 1   
    89    48    85 1   
@<TRIPOS>SUBSTRUCTURE
     1 BD6         1 TEMP              0 ****  ****    0 ROOT
