@<TRIPOS>MOLECULE
BD6
   85    89     1     0     0
SMALL
bcc


@<TRIPOS>ATOM
      1 CD2         -2.5100     2.2000    -1.0730 ca         1 BD6      -0.103800
      2 CE3         -3.1850     1.7350    -2.2090 ca         1 BD6      -0.095000
      3 CZ3         -2.4540     1.3990    -3.3310 ca         1 BD6      -0.162000
      4 CH2         -1.0520     1.5120    -3.3440 ca         1 BD6      -0.141000
      5 CZ2         -0.3580     1.9540    -2.2340 ca         1 BD6      -0.137000
      6 CE2         -1.1000     2.2920    -1.1030 ca         1 BD6      -0.053200
      7 NE1         -0.7020     2.7740     0.1090 na         1 BD6      -0.152400
      8 CD1         -1.7960     2.9860     0.8950 cc         1 BD6      -0.076100
      9 CG          -2.9360     2.6560     0.2160 cd         1 BD6      -0.175400
     10 CB          -4.3350     2.6340     0.7340 c3         1 BD6      -0.012200
     11 CA          -4.5850     1.3990     1.6340 c3         1 BD6       0.020700
     12 C           -6.0790     1.1600     1.7760 c          1 BD6       0.666100
     13 O           -6.7300     0.6200     0.8990 o          1 BD6      -0.577100
     14 NBC         -6.5870     1.6170     2.9270 ns         1 BD6      -0.451400
     15 OAF         -7.9320     1.6640     3.1170 oh         1 BD6      -0.377100
     16 N           -3.9770     0.2170     1.0740 ns         1 BD6      -0.548900
     17 CBK         -2.7740    -0.2250     1.4800 c          1 BD6       0.655100
     18 OAD         -2.2390     0.1260     2.5150 o          1 BD6      -0.591100
     19 CBU         -2.0240    -1.1760     0.5280 c3         1 BD6       0.035700
     20 CAZ         -2.8790    -1.9800    -0.4640 c3         1 BD6      -0.038100
     21 CBN         -2.0220    -2.7510    -1.4290 ca         1 BD6      -0.087300
     22 CAQ         -1.6270    -4.0600    -1.1660 ca         1 BD6      -0.125000
     23 CAK         -0.7990    -4.7400    -2.0500 ca         1 BD6      -0.133000
     24 CAH         -0.3570    -4.1210    -3.2120 ca         1 BD6      -0.121000
     25 CAL         -0.7530    -2.8180    -3.4880 ca         1 BD6      -0.133000
     26 CAR         -1.5780    -2.1410    -2.6000 ca         1 BD6      -0.125000
     27 NBV         -1.1650    -2.0230     1.3260 n          1 BD6      -0.447800
     28 CAA         -1.8280    -2.9190     2.2630 c3         1 BD6       0.084300
     29 CBL          0.1710    -1.9000     1.4630 c          1 BD6       0.675100
     30 OAE          0.7810    -2.5360     2.3110 o          1 BD6      -0.596100
     31 CBT          0.9840    -1.0580     0.4820 c3         1 BD6       0.044700
     32 CAY          1.5330    -2.0170    -0.6030 c3         1 BD6      -0.037100
     33 CBO          2.4440    -1.3240    -1.5440 cc         1 BD6      -0.223900
     34 CAV          3.8040    -1.1700    -1.5390 cd         1 BD6       0.297200
     35 NBF          4.2000    -0.3410    -2.5500 nd         1 BD6      -0.683000
     36 CAS          3.0980     0.0090    -3.1640 cc         1 BD6       0.396400
     37 NBB          2.0170    -0.5660    -2.5980 na         1 BD6      -0.288900
     38 NBD          2.0620    -0.4270     1.2020 ns         1 BD6      -0.531900
     39 CBI          2.6210     0.7210     0.7550 c          1 BD6       0.766100
     40 OAB          2.0860     1.5170     0.0110 o          1 BD6      -0.631000
     41 OBH          3.8380     0.8880     1.2730 os         1 BD6      -0.424900
     42 CAX          4.5880     2.0280     0.8300 c3         1 BD6       0.205700
     43 CBM          6.0380     1.7110     1.0260 ca         1 BD6      -0.108300
     44 CAO          6.7210     0.9690     0.0630 ca         1 BD6      -0.102000
     45 CAI          8.0590     0.6500     0.2410 ca         1 BD6      -0.135500
     46 CAG          8.7290     1.0710     1.3830 ca         1 BD6      -0.116000
     47 CAJ          8.0570     1.8130     2.3450 ca         1 BD6      -0.135500
     48 CAP          6.7160     2.1290     2.1660 ca         1 BD6      -0.102000
     49 HE3         -4.2650     1.6510    -2.2170 ha         1 BD6       0.135000
     50 HZ3         -2.9620     1.0440    -4.2180 ha         1 BD6       0.130000
     51 HH2         -0.5110     1.2590    -4.2470 ha         1 BD6       0.123000
     52 HZ2          0.7200     2.0500    -2.2420 ha         1 BD6       0.152000
     53 HNE1         0.2570     2.8670     0.4020 hn         1 BD6       0.328700
     54 HD1         -1.6800     3.3500     1.9040 h4         1 BD6       0.170000
     55 HB          -4.5700     3.5320     1.3090 hc         1 BD6       0.060700
     56 HBA         -5.0330     2.6140    -0.1080 hc         1 BD6       0.060700
     57 HA          -4.1260     1.5770     2.6070 h1         1 BD6       0.088700
     58 HNBC        -6.0350     2.1180     3.6100 hn         1 BD6       0.343500
     59 HOAF        -8.1650     0.8620     3.6030 ho         1 BD6       0.406000
     60 HN          -4.3580    -0.1020     0.1980 hn         1 BD6       0.331500
     61 HBU         -1.4180    -0.4950    -0.0750 h1         1 BD6       0.088700
     62 HAZ         -3.5670    -2.6460     0.0600 hc         1 BD6       0.061200
     63 HAZA        -3.4920    -1.2860    -1.0420 hc         1 BD6       0.061200
     64 HAQ         -1.9720    -4.5580    -0.2680 ha         1 BD6       0.136500
     65 HAK         -0.4990    -5.7560    -1.8300 ha         1 BD6       0.133500
     66 HAH          0.2880    -4.6510    -3.9000 ha         1 BD6       0.136000
     67 HAL         -0.4250    -2.3330    -4.3990 ha         1 BD6       0.133500
     68 HAR         -1.8880    -1.1250    -2.8200 ha         1 BD6       0.136500
     69 HAA         -1.5240    -3.9520     2.1010 h1         1 BD6       0.046700
     70 HAAA        -1.6140    -2.6500     3.2960 h1         1 BD6       0.046700
     71 HAAB        -2.9040    -2.8640     2.1210 h1         1 BD6       0.046700
     72 HBT          0.4040    -0.2690     0.0090 h1         1 BD6       0.089700
     73 HAY          2.0830    -2.8210    -0.1090 hc         1 BD6       0.076200
     74 HAYA         0.7010    -2.4830    -1.1310 hc         1 BD6       0.076200
     75 HAV          4.5070    -1.6160    -0.8520 h4         1 BD6       0.039100
     76 HAS          3.0260     0.6560    -4.0240 h5         1 BD6       0.055100
     77 HNBB         1.0580    -0.4350    -2.8810 hn         1 BD6       0.305700
     78 HNBD         2.6480    -1.0450     1.7460 hn         1 BD6       0.340500
     79 HAX          4.3810     2.2260    -0.2220 h1         1 BD6       0.058200
     80 HAXA         4.2910     2.9070     1.4070 h1         1 BD6       0.058200
     81 HAO          6.2030     0.6480    -0.8340 ha         1 BD6       0.141500
     82 HAI          8.5810     0.0760    -0.5140 ha         1 BD6       0.132500
     83 HAG          9.7740     0.8250     1.5210 ha         1 BD6       0.130000
     84 HAJ          8.5760     2.1490     3.2330 ha         1 BD6       0.132500
     85 HAP          6.1940     2.7080     2.9180 ha         1 BD6       0.141500
@<TRIPOS>BOND
     1     1     2 ar  
     2     1     6 ar  
     3     1     9 1   
     4     2     3 ar  
     5     2    49 1   
     6     3     4 ar  
     7     3    50 1   
     8     4     5 ar  
     9     4    51 1   
    10     5     6 ar  
    11     5    52 1   
    12     6     7 1   
    13     7     8 1   
    14     7    53 1   
    15     8     9 2   
    16     8    54 1   
    17     9    10 1   
    18    10    11 1   
    19    10    55 1   
    20    10    56 1   
    21    11    12 1   
    22    11    16 1   
    23    11    57 1   
    24    12    13 2   
    25    12    14 1   
    26    14    15 1   
    27    14    58 1   
    28    15    59 1   
    29    16    17 1   
    30    16    60 1   
    31    17    18 2   
    32    17    19 1   
    33    19    20 1   
    34    19    27 1   
    35    19    61 1   
    36    20    21 1   
    37    20    62 1   
    38    20    63 1   
    39    21    22 ar  
    40    21    26 ar  
    41    22    23 ar  
    42    22    64 1   
    43    23    24 ar  
    44    23    65 1   
    45    24    25 ar  
    46    24    66 1   
    47    25    26 ar  
    48    25    67 1   
    49    26    68 1   
    50    27    28 1   
    51    27    29 1   
    52    28    69 1   
    53    28    70 1   
    54    28    71 1   
    55    29    30 2   
    56    29    31 1   
    57    31    32 1   
    58    31    38 1   
    59    31    72 1   
    60    32    33 1   
    61    32    73 1   
    62    32    74 1   
    63    33    34 2   
    64    33    37 1   
    65    34    35 1   
    66    34    75 1   
    67    35    36 2   
    68    36    37 1   
    69    36    76 1   
    70    37    77 1   
    71    38    39 1   
    72    38    78 1   
    73    39    40 2   
    74    39    41 1   
    75    41    42 1   
    76    42    43 1   
    77    42    79 1   
    78    42    80 1   
    79    43    44 ar  
    80    43    48 ar  
    81    44    45 ar  
    82    44    81 1   
    83    45    46 ar  
    84    45    82 1   
    85    46    47 ar  
    86    46    83 1   
    87    47    48 ar  
    88    47    84 1   
    89    48    85 1   
@<TRIPOS>SUBSTRUCTURE
     1 BD6         1 TEMP              0 ****  ****    0 ROOT
