@<TRIPOS>MOLECULE
BD7
   82    85     1     0     0
SMALL
No Charge or Current Charge


@<TRIPOS>ATOM
      1 CD1          2.7790     2.8040     1.6580 ca         1 BD7      -0.068500
      2 CE1          1.5200     2.8290     2.2810 ca         1 BD7      -0.183000
      3 CZ           0.3540     2.8640     1.5060 ca         1 BD7       0.152100
      4 OH          -0.8610     2.8570     2.1150 oh         1 BD7      -0.575100
      5 CE2          0.4410     2.8940     0.1070 ca         1 BD7      -0.183000
      6 CD2          1.6980     2.8850    -0.5200 ca         1 BD7      -0.068500
      7 CG           2.8750     2.8250     0.2520 ca         1 BD7      -0.141300
      8 CB           4.2450     2.7580    -0.4250 c3         1 BD7      -0.040100
      9 CA           4.3950     1.5720    -1.4180 c3         1 BD7       0.021700
     10 C            5.8830     1.3340    -1.8110 c          1 BD7       0.599100
     11 O            6.5060     0.3260    -1.4910 o          1 BD7      -0.570100
     12 NBC          6.4680     2.3580    -2.5510 ns         1 BD7      -0.385400
     13 OAF          7.7500     2.1700    -3.2010 oh         1 BD7      -0.415100
     14 N            3.7860     0.3410    -0.8520 ns         1 BD7      -0.481900
     15 CBJ          2.6240    -0.2500    -1.3140 c          1 BD7       0.586100
     16 OAD          2.0860     0.1350    -2.3440 o          1 BD7      -0.581100
     17 CBS          2.0400    -1.4190    -0.4580 c3         1 BD7       0.036700
     18 CBA          3.1330    -2.2860     0.2500 c3         1 BD7      -0.039100
     19 CBN          2.5380    -3.3080     1.2130 ca         1 BD7      -0.089300
     20 CAP          2.2700    -4.6250     0.7920 ca         1 BD7      -0.105500
     21 CAL          1.7030    -5.5530     1.6830 ca         1 BD7      -0.114000
     22 CAI          1.4040    -5.1710     3.0010 ca         1 BD7      -0.102000
     23 CAM          1.6790    -3.8620     3.4310 ca         1 BD7      -0.114000
     24 CAQ          2.2480    -2.9350     2.5410 ca         1 BD7      -0.105500
     25 NBT          1.0130    -2.2250    -1.2170 n          1 BD7      -0.379800
     26 CAA          1.5270    -3.1270    -2.2830 c3         1 BD7       0.081300
     27 CBK         -0.3430    -1.8000    -1.3160 c          1 BD7       0.608100
     28 OAE         -1.0250    -2.1530    -2.2750 o          1 BD7      -0.596100
     29 CBR         -0.9980    -0.9870    -0.1490 c3         1 BD7       0.048700
     30 CAZ         -1.0610    -1.8360     1.1490 c3         1 BD7      -0.036100
     31 CBP         -1.5100    -1.0770     2.3690 cc         1 BD7      -0.216300
     32 CAW         -2.7280    -1.0810     3.0030 cd         1 BD7       0.232900
     33 NBF         -2.7030    -0.2480     4.1050 nd         1 BD7      -0.687000
     34 CAV         -1.4820     0.2680     4.1420 cc         1 BD7       0.402400
     35 NBB         -0.7210    -0.2220     3.1090 na         1 BD7      -0.286500
     36 NBD         -2.3530    -0.5350    -0.5470 ns         1 BD7      -0.464900
     37 CBH         -2.9660     0.6140    -0.1440 c          1 BD7       0.665100
     38 OAB         -2.4650     1.4760     0.5610 o          1 BD7      -0.603000
     39 OBG         -4.2040     0.6690    -0.7010 os         1 BD7      -0.444100
     40 CAX         -5.0090     1.8210    -0.4070 c3         1 BD7       0.230900
     41 CBM         -6.3450     1.6670    -1.1210 ca         1 BD7      -0.110300
     42 CAN         -7.4180     1.0080    -0.4870 ca         1 BD7      -0.083500
     43 CAJ         -8.6510     0.8670    -1.1460 ca         1 BD7      -0.117500
     44 CAH         -8.8200     1.3810    -2.4430 ca         1 BD7      -0.098000
     45 CAK         -7.7530     2.0360    -3.0810 ca         1 BD7      -0.117500
     46 CAO         -6.5190     2.1780    -2.4230 ca         1 BD7      -0.083500
     47 HD1          3.6780     2.7620     2.2700 ha         1 BD7       0.114500
     48 HE1          1.4500     2.8100     3.3660 ha         1 BD7       0.130000
     49 HOH         -1.5020     2.3980     1.5000 ho         1 BD7       0.518000
     50 HE2         -0.4600     2.9320    -0.5000 ha         1 BD7       0.130000
     51 HD2          1.7550     2.9100    -1.6060 ha         1 BD7       0.114500
     52 HB           4.4440     3.6990    -0.9530 hc         1 BD7       0.059700
     53 HBA          5.0290     2.6700     0.3370 hc         1 BD7       0.059700
     54 HA           3.8710     1.8350    -2.3450 h1         1 BD7       0.093700
     55 HNBC         5.8830     3.1070    -2.9200 hn         1 BD7       0.343500
     56 HOAF         8.2700     2.9620    -2.9270 ho         1 BD7       0.444000
     57 HN           4.1970    -0.0450    -0.0110 hn         1 BD7       0.329500
     58 HBS          1.5390    -0.9020     0.3660 h1         1 BD7       0.085700
     59 HBAA         3.7750    -2.7790    -0.4890 hc         1 BD7       0.061200
     60 HBAB         3.8030    -1.6370     0.8250 hc         1 BD7       0.061200
     61 HAP          2.4980    -4.9320    -0.2260 ha         1 BD7       0.116000
     62 HAL          1.4940    -6.5670     1.3500 ha         1 BD7       0.116500
     63 HAI          0.9640    -5.8890     3.6900 ha         1 BD7       0.119000
     64 HAM          1.4510    -3.5660     4.4520 ha         1 BD7       0.116500
     65 HAQ          2.4540    -1.9230     2.8830 ha         1 BD7       0.116000
     66 HAA          1.0390    -4.1060    -2.2010 h1         1 BD7       0.048367
     67 HAAA         1.3050    -2.7000    -3.2700 h1         1 BD7       0.048367
     68 HAAB         2.6110    -3.2670    -2.2140 h1         1 BD7       0.048367
     69 HBR         -0.3800    -0.0980     0.0220 h1         1 BD7       0.082700
     70 HAZ         -1.7320    -2.6870     0.9790 hc         1 BD7       0.076200
     71 HAZA        -0.0810    -2.2780     1.3480 hc         1 BD7       0.076200
     72 HAW         -3.6170    -1.6370     2.7300 h4         1 BD7       0.039100
     73 HAV         -1.0960     0.9730     4.8700 h5         1 BD7       0.057100
     74 HNBB         0.2430     0.0300     2.9350 hn         1 BD7       0.360000
     75 HNBD        -2.8870    -1.1140    -1.1830 hn         1 BD7       0.344500
     76 HAX         -5.1780     1.9110     0.6750 h1         1 BD7       0.061200
     77 HAXA        -4.5130     2.7400    -0.7470 h1         1 BD7       0.061200
     78 HAN         -7.2950     0.6050     0.5160 ha         1 BD7       0.124000
     79 HAJ         -9.4760     0.3580    -0.6520 ha         1 BD7       0.114500
     80 HAH         -9.7750     1.2700    -2.9530 ha         1 BD7       0.112000
     81 HAK         -7.8820     2.4320    -4.0860 ha         1 BD7       0.114500
     82 HAO         -5.6970     2.6840    -2.9260 ha         1 BD7       0.124000
@<TRIPOS>BOND
     1     1     2 ar  
     2     1     7 ar  
     3     1    47 1   
     4     2     3 ar  
     5     2    48 1   
     6     3     4 1   
     7     3     5 ar  
     8     4    49 1   
     9     5     6 ar  
    10     5    50 1   
    11     6     7 ar  
    12     6    51 1   
    13     7     8 1   
    14     8     9 1   
    15     8    52 1   
    16     8    53 1   
    17     9    10 1   
    18     9    14 1   
    19     9    54 1   
    20    10    11 2   
    21    10    12 1   
    22    12    13 1   
    23    12    55 1   
    24    13    56 1   
    25    14    15 1   
    26    14    57 1   
    27    15    16 2   
    28    15    17 1   
    29    17    18 1   
    30    17    25 1   
    31    17    58 1   
    32    18    19 1   
    33    18    59 1   
    34    18    60 1   
    35    19    20 ar  
    36    19    24 ar  
    37    20    21 ar  
    38    20    61 1   
    39    21    22 ar  
    40    21    62 1   
    41    22    23 ar  
    42    22    63 1   
    43    23    24 ar  
    44    23    64 1   
    45    24    65 1   
    46    25    26 1   
    47    25    27 1   
    48    26    66 1   
    49    26    67 1   
    50    26    68 1   
    51    27    28 2   
    52    27    29 1   
    53    29    30 1   
    54    29    36 1   
    55    29    69 1   
    56    30    31 1   
    57    30    70 1   
    58    30    71 1   
    59    31    32 2   
    60    31    35 1   
    61    32    33 1   
    62    32    72 1   
    63    33    34 2   
    64    34    35 1   
    65    34    73 1   
    66    35    74 1   
    67    36    37 1   
    68    36    75 1   
    69    37    38 2   
    70    37    39 1   
    71    39    40 1   
    72    40    41 1   
    73    40    76 1   
    74    40    77 1   
    75    41    42 ar  
    76    41    46 ar  
    77    42    43 ar  
    78    42    78 1   
    79    43    44 ar  
    80    43    79 1   
    81    44    45 ar  
    82    44    80 1   
    83    45    46 ar  
    84    45    81 1   
    85    46    82 1   
@<TRIPOS>SUBSTRUCTURE
     1 BD7         1 TEMP              0 ****  ****    0 ROOT
