@<TRIPOS>MOLECULE
BD7
   82    85     1     0     0
SMALL
abcg2


@<TRIPOS>ATOM
      1 CD1          3.3410     2.0250     1.5950 ca         1 BD7      -0.068500
      2 CE1          2.1400     1.8120     2.2530 ca         1 BD7      -0.183000
      3 CZ           0.9370     2.1140     1.6200 ca         1 BD7       0.152100
      4 OH          -0.2130     1.8460     2.2670 oh         1 BD7      -0.575100
      5 CE2          0.9660     2.6790     0.3430 ca         1 BD7      -0.183000
      6 CD2          2.1770     2.8980    -0.2930 ca         1 BD7      -0.068500
      7 CG           3.3850     2.5550     0.3080 ca         1 BD7      -0.141300
      8 CB           4.6810     2.6220    -0.4480 c3         1 BD7      -0.040100
      9 CA           4.7180     1.5510    -1.5710 c3         1 BD7       0.021700
     10 C            6.1610     1.3040    -1.9880 c          1 BD7       0.599100
     11 O            6.8730     0.5040    -1.4110 o          1 BD7      -0.570100
     12 NBC          6.5650     2.1050    -2.9830 ns         1 BD7      -0.385400
     13 OAF          7.8160     1.9810    -3.5000 oh         1 BD7      -0.415100
     14 N            4.1310     0.3140    -1.1190 ns         1 BD7      -0.481900
     15 CBJ          2.8760    -0.0400    -1.4510 c          1 BD7       0.586100
     16 OAD          2.2730     0.4180    -2.4040 o          1 BD7      -0.581100
     17 CBS          2.1510    -1.0180    -0.5080 c3         1 BD7       0.036700
     18 CBA          3.0270    -1.8490     0.4410 c3         1 BD7      -0.039100
     19 CBN          2.1960    -2.6250     1.4220 ca         1 BD7      -0.089300
     20 CAP          1.8110    -3.9380     1.1640 ca         1 BD7      -0.105500
     21 CAL          1.0150    -4.6320     2.0660 ca         1 BD7      -0.114000
     22 CAI          0.5940    -4.0230     3.2400 ca         1 BD7      -0.102000
     23 CAM          0.9770    -2.7150     3.5110 ca         1 BD7      -0.114000
     24 CAQ          1.7720    -2.0240     2.6060 ca         1 BD7      -0.105500
     25 NBT          1.2650    -1.8380    -1.3040 n          1 BD7      -0.379800
     26 CAA          1.9010    -2.6840    -2.3050 c3         1 BD7       0.081300
     27 CBK         -0.0750    -1.7220    -1.3900 c          1 BD7       0.608100
     28 OAE         -0.7050    -2.3090    -2.2580 o          1 BD7      -0.596100
     29 CBR         -0.8740    -0.9640    -0.3280 c3         1 BD7       0.048700
     30 CAZ         -1.3750    -2.0130     0.6990 c3         1 BD7      -0.036100
     31 CBP         -2.3560    -1.4460     1.6550 cc         1 BD7      -0.216300
     32 CAW         -3.7230    -1.4100     1.6180 cd         1 BD7       0.232900
     33 NBF         -4.2160    -0.6760     2.6590 nd         1 BD7      -0.687000
     34 CAV         -3.1650    -0.2670     3.3210 cc         1 BD7       0.402400
     35 NBB         -2.0230    -0.7130     2.7600 na         1 BD7      -0.286500
     36 NBD         -1.9800    -0.3170    -0.9890 ns         1 BD7      -0.464900
     37 CBH         -2.6220     0.7380    -0.4490 c          1 BD7       0.665100
     38 OAB         -2.1730     1.4830     0.4060 o          1 BD7      -0.603000
     39 OBG         -3.8170     0.9050    -1.0020 os         1 BD7      -0.444100
     40 CAX         -4.6510     1.9580    -0.4930 c3         1 BD7       0.230900
     41 CBM         -6.0720     1.5670    -0.7620 ca         1 BD7      -0.110300
     42 CAN         -6.7280     0.7000     0.1080 ca         1 BD7      -0.083500
     43 CAJ         -8.0360     0.3120    -0.1420 ca         1 BD7      -0.117500
     44 CAH         -8.7010     0.7900    -1.2650 ca         1 BD7      -0.098000
     45 CAK         -8.0540     1.6570    -2.1350 ca         1 BD7      -0.117500
     46 CAO         -6.7430     2.0420    -1.8840 ca         1 BD7      -0.083500
     47 HD1          4.2670     1.7560     2.0910 ha         1 BD7       0.114500
     48 HE1          2.1300     1.3970     3.2540 ha         1 BD7       0.130000
     49 HOH         -0.9560     1.8190     1.6340 ho         1 BD7       0.518000
     50 HE2          0.0420     2.9430    -0.1570 ha         1 BD7       0.130000
     51 HD2          2.1730     3.3230    -1.2900 ha         1 BD7       0.114500
     52 HB           4.8350     3.6030    -0.9030 hc         1 BD7       0.059700
     53 HBA          5.5110     2.4560     0.2420 hc         1 BD7       0.059700
     54 HA           4.1270     1.9020    -2.4170 h1         1 BD7       0.093700
     55 HNBC         5.9260     2.6640    -3.5310 hn         1 BD7       0.343500
     56 HOAF         8.3630     2.6370    -3.0490 ho         1 BD7       0.444000
     57 HN           4.5740    -0.1190    -0.3250 hn         1 BD7       0.329500
     58 HBS          1.5700    -0.3420     0.1260 h1         1 BD7       0.085700
     59 HBAA         3.6860    -2.5180    -0.1160 hc         1 BD7       0.061200
     60 HBAB         3.6710    -1.1700     1.0040 hc         1 BD7       0.061200
     61 HAP          2.1410    -4.4270     0.2560 ha         1 BD7       0.116000
     62 HAL          0.7230    -5.6520     1.8500 ha         1 BD7       0.116500
     63 HAI         -0.0270    -4.5640     3.9420 ha         1 BD7       0.119000
     64 HAM          0.6640    -2.2360     4.4300 ha         1 BD7       0.116500
     65 HAQ          2.0750    -1.0070     2.8240 ha         1 BD7       0.116000
     66 HAA          1.5940    -3.7230    -2.1920 h1         1 BD7       0.048367
     67 HAAA         1.6650    -2.3580    -3.3160 h1         1 BD7       0.048367
     68 HAAB         2.9810    -2.6420    -2.1830 h1         1 BD7       0.048367
     69 HBR         -0.2940    -0.2000     0.1820 h1         1 BD7       0.082700
     70 HAZ         -1.8580    -2.8230     0.1510 hc         1 BD7       0.076200
     71 HAZA        -0.5190    -2.4450     1.2160 hc         1 BD7       0.076200
     72 HAW         -4.3680    -1.8750     0.8870 h4         1 BD7       0.039100
     73 HAV         -3.1700     0.3370     4.2160 h5         1 BD7       0.057100
     74 HNBB        -1.0910    -0.4950     3.0760 hn         1 BD7       0.360000
     75 HNBD        -2.5070    -0.8990    -1.6250 hn         1 BD7       0.344500
     76 HAX         -4.4850     2.0820     0.5780 h1         1 BD7       0.061200
     77 HAXA        -4.3920     2.8950    -0.9900 h1         1 BD7       0.061200
     78 HAN         -6.2140     0.3350     0.9910 ha         1 BD7       0.124000
     79 HAJ         -8.5400    -0.3590     0.5410 ha         1 BD7       0.114500
     80 HAH         -9.7230     0.4900    -1.4590 ha         1 BD7       0.112000
     81 HAK         -8.5690     2.0370    -3.0080 ha         1 BD7       0.114500
     82 HAO         -6.2410     2.7190    -2.5640 ha         1 BD7       0.124000
@<TRIPOS>BOND
     1     1     2 ar  
     2     1     7 ar  
     3     1    47 1   
     4     2     3 ar  
     5     2    48 1   
     6     3     4 1   
     7     3     5 ar  
     8     4    49 1   
     9     5     6 ar  
    10     5    50 1   
    11     6     7 ar  
    12     6    51 1   
    13     7     8 1   
    14     8     9 1   
    15     8    52 1   
    16     8    53 1   
    17     9    10 1   
    18     9    14 1   
    19     9    54 1   
    20    10    11 2   
    21    10    12 1   
    22    12    13 1   
    23    12    55 1   
    24    13    56 1   
    25    14    15 1   
    26    14    57 1   
    27    15    16 2   
    28    15    17 1   
    29    17    18 1   
    30    17    25 1   
    31    17    58 1   
    32    18    19 1   
    33    18    59 1   
    34    18    60 1   
    35    19    20 ar  
    36    19    24 ar  
    37    20    21 ar  
    38    20    61 1   
    39    21    22 ar  
    40    21    62 1   
    41    22    23 ar  
    42    22    63 1   
    43    23    24 ar  
    44    23    64 1   
    45    24    65 1   
    46    25    26 1   
    47    25    27 1   
    48    26    66 1   
    49    26    67 1   
    50    26    68 1   
    51    27    28 2   
    52    27    29 1   
    53    29    30 1   
    54    29    36 1   
    55    29    69 1   
    56    30    31 1   
    57    30    70 1   
    58    30    71 1   
    59    31    32 2   
    60    31    35 1   
    61    32    33 1   
    62    32    72 1   
    63    33    34 2   
    64    34    35 1   
    65    34    73 1   
    66    35    74 1   
    67    36    37 1   
    68    36    75 1   
    69    37    38 2   
    70    37    39 1   
    71    39    40 1   
    72    40    41 1   
    73    40    76 1   
    74    40    77 1   
    75    41    42 ar  
    76    41    46 ar  
    77    42    43 ar  
    78    42    78 1   
    79    43    44 ar  
    80    43    79 1   
    81    44    45 ar  
    82    44    80 1   
    83    45    46 ar  
    84    45    81 1   
    85    46    82 1   
@<TRIPOS>SUBSTRUCTURE
     1 BD7         1 TEMP              0 ****  ****    0 ROOT
