@<TRIPOS>MOLECULE
BD8
  112   115     1     0     0
SMALL
No Charge or Current Charge


@<TRIPOS>ATOM
      1 CAA         -5.5700    23.9420    28.5580 c3         1 BD8      -0.088100
      2 CAW         -4.2260    23.8710    29.3080 c3         1 BD8      -0.075400
      3 CAX         -3.2050    22.9290    28.6320 c3         1 BD8      -0.077400
      4 CAY         -1.8580    22.8580    29.3830 c3         1 BD8      -0.076400
      5 CAZ         -0.8370    21.9170    28.7020 c3         1 BD8      -0.073400
      6 CBA          0.4930    21.7430    29.4720 c3         1 BD8      -0.074400
      7 CBB          1.3620    23.0250    29.5520 c3         1 BD8      -0.076400
      8 CBC          2.6900    22.8540    30.3340 c3         1 BD8      -0.075400
      9 CBD          3.6700    21.7860    29.7860 c3         1 BD8      -0.067400
     10 CBE          4.1750    22.0510    28.3460 c3         1 BD8      -0.156400
     11 CBQ          5.0960    20.9230    27.8780 c          1 BD8       0.586100
     12 OAC          6.2480    20.8050    28.2670 o          1 BD8      -0.600100
     13 NBM          4.5350    20.0630    26.9590 ns         1 BD8      -0.515900
     14 CCA          5.1480    18.7820    26.5220 c3         1 BD8       0.038700
     15 CBJ          4.1650    17.6160    26.7840 c3         1 BD8      -0.096700
     16 CBY          3.7380    17.5200    28.2230 cc         1 BD8       0.236300
     17 CAV          2.5650    17.9570    28.7750 cd         1 BD8      -0.228000
     18 NBP          2.6710    17.6460    30.1220 na         1 BD8      -0.308500
     19 CAU          3.8950    17.0340    30.3160 cd         1 BD8       0.398400
     20 NBL          4.5480    16.9520    29.1640 nc         1 BD8      -0.664000
     21 CBS          5.6270    18.8280    25.0400 c          1 BD8       0.589100
     22 OAE          6.1570    17.8720    24.4900 o          1 BD8      -0.587100
     23 N            5.4150    20.0160    24.3720 ns         1 BD8      -0.495900
     24 CA           5.7760    20.2880    22.9630 c3         1 BD8       0.039700
     25 CB           4.7540    19.6290    22.0020 c3         1 BD8      -0.036100
     26 CG           5.1890    19.6830    20.5430 ca         1 BD8      -0.094300
     27 CD1          4.5170    20.5170    19.6280 ca         1 BD8      -0.104500
     28 CE1          4.9300    20.5750    18.2860 ca         1 BD8      -0.108500
     29 CZ           6.0170    19.7990    17.8510 ca         1 BD8      -0.105000
     30 CE2          6.6900    18.9640    18.7580 ca         1 BD8      -0.108500
     31 CD2          6.2770    18.9050    20.1000 ca         1 BD8      -0.104500
     32 C            5.8720    21.8240    22.7370 c          1 BD8       0.585100
     33 O            5.3670    22.6410    23.4980 o          1 BD8      -0.647100
     34 NBO          6.5890    22.2120    21.6260 ns         1 BD8      -0.473900
     35 CCB          6.8810    23.6080    21.2290 c3         1 BD8       0.041700
     36 CBI          7.8590    24.2900    22.2290 c3         1 BD8      -0.032100
     37 CBW          9.1720    23.5300    22.3980 ca         1 BD8      -0.126300
     38 CAS          9.3250    22.5970    23.4430 ca         1 BD8      -0.062000
     39 CAQ         10.5320    21.8930    23.5900 ca         1 BD8      -0.165500
     40 CBU         11.5930    22.1190    22.7010 ca         1 BD8       0.131100
     41 OAG         12.7590    21.4320    22.8530 oh         1 BD8      -0.538100
     42 CAR         11.4490    23.0520    21.6610 ca         1 BD8      -0.165500
     43 CAT         10.2420    23.7570    21.5100 ca         1 BD8      -0.062000
     44 CBT          7.4100    23.6320    19.7540 c          1 BD8       0.591100
     45 OAF          7.7560    22.5850    19.2140 o          1 BD8      -0.605100
     46 NCC          7.5290    24.8550    19.0370 n          1 BD8      -0.408800
     47 CAB          8.0650    24.8320    17.6550 c3         1 BD8       0.086300
     48 CBG          6.9530    26.1420    19.5030 c3         1 BD8       0.109000
     49 CBF          8.0170    27.2360    19.7310 c3         1 BD8      -0.150700
     50 CBX          7.4110    28.4950    20.3220 ca         1 BD8       0.341300
     51 CAP          6.9510    29.5360    19.4930 ca         1 BD8      -0.156000
     52 CAL          6.3870    30.6810    20.0790 ca         1 BD8      -0.069000
     53 CAI          6.3060    30.7330    21.4790 ca         1 BD8      -0.162000
     54 CAM          6.7860    29.6490    22.2340 ca         1 BD8       0.341900
     55 NBK          7.3300    28.5440    21.6710 nb         1 BD8      -0.674000
     56 HAA         -5.4260    24.3110    27.5360 hc         1 BD8       0.031367
     57 HAAA        -6.0380    22.9510    28.5060 hc         1 BD8       0.031367
     58 HAAB        -6.2600    24.6200    29.0740 hc         1 BD8       0.031367
     59 HAW         -3.8010    24.8810    29.3730 hc         1 BD8       0.036200
     60 HAWA        -4.4080    23.5330    30.3350 hc         1 BD8       0.036200
     61 HAX         -3.6350    21.9220    28.5650 hc         1 BD8       0.035700
     62 HAXA        -3.0270    23.2700    27.6040 hc         1 BD8       0.035700
     63 HAY         -1.4400    23.8700    29.4500 hc         1 BD8       0.038700
     64 HAYA        -2.0360    22.5150    30.4100 hc         1 BD8       0.038700
     65 HAZ         -1.2970    20.9280    28.5840 hc         1 BD8       0.035200
     66 HAZA        -0.6230    22.2830    27.6900 hc         1 BD8       0.035200
     67 HBA          0.2800    21.3820    30.4860 hc         1 BD8       0.038200
     68 HBAA         1.0650    20.9530    28.9720 hc         1 BD8       0.038200
     69 HBB          1.5720    23.3880    28.5390 hc         1 BD8       0.037200
     70 HBBA         0.7880    23.8170    30.0470 hc         1 BD8       0.037200
     71 HBC          3.2050    23.8220    30.3630 hc         1 BD8       0.044200
     72 HBCA         2.4520    22.6040    31.3760 hc         1 BD8       0.044200
     73 HBD          4.5370    21.7390    30.4580 hc         1 BD8       0.056200
     74 HBDA         3.2000    20.7960    29.8340 hc         1 BD8       0.056200
     75 HBE          3.3130    22.1200    27.6730 hc         1 BD8       0.060200
     76 HBEA         4.7330    22.9940    28.3380 hc         1 BD8       0.060200
     77 HNBM         3.5680    20.2420    26.7130 hn         1 BD8       0.316500
     78 HCA          6.0540    18.6000    27.1160 h1         1 BD8       0.117700
     79 HBJ          3.2810    17.7390    26.1470 hc         1 BD8       0.064700
     80 HBJA         4.6340    16.6720    26.4820 hc         1 BD8       0.064700
     81 HAV          1.7080    18.4470    28.3280 h4         1 BD8       0.155000
     82 HNBP         1.9860    17.8200    30.8490 hn         1 BD8       0.353000
     83 HAU          4.2290    16.6850    31.2870 h5         1 BD8       0.059100
     84 HN           5.0060    20.7700    24.9130 hn         1 BD8       0.326500
     85 HA           6.7730    19.8680    22.7750 h1         1 BD8       0.090700
     86 HB           4.6150    18.5800    22.2890 hc         1 BD8       0.065700
     87 HBF          3.7750    20.1080    22.1360 hc         1 BD8       0.065700
     88 HD1          3.6770    21.1260    19.9550 ha         1 BD8       0.117000
     89 HE1          4.4110    21.2240    17.5850 ha         1 BD8       0.112000
     90 HZ           6.3380    19.8460    16.8130 ha         1 BD8       0.110000
     91 HE2          7.5320    18.3620    18.4220 ha         1 BD8       0.112000
     92 HD2          6.8030    18.2540    20.7960 ha         1 BD8       0.117000
     93 HNBO         6.9350    21.4740    21.0200 hn         1 BD8       0.356500
     94 HCB          5.9290    24.1520    21.2390 h1         1 BD8       0.078700
     95 HBI          8.0620    25.3180    21.9180 hc         1 BD8       0.064700
     96 HBIA         7.3620    24.3870    23.2010 hc         1 BD8       0.064700
     97 HAS          8.5090    22.4140    24.1390 ha         1 BD8       0.115000
     98 HAQ         10.6450    21.1720    24.3960 ha         1 BD8       0.124500
     99 HOAG        13.3820    21.7170    22.1510 ho         1 BD8       0.458000
    100 HAR         12.2660    23.2360    20.9670 ha         1 BD8       0.124500
    101 HAT         10.1400    24.4780    20.7010 ha         1 BD8       0.115000
    102 HAB          7.9750    25.8190    17.1840 h1         1 BD8       0.045367
    103 HABA         9.1240    24.5440    17.6760 h1         1 BD8       0.045367
    104 HABB         7.5060    24.1060    17.0510 h1         1 BD8       0.045367
    105 HBG          6.2390    26.4970    18.7470 h1         1 BD8       0.058700
    106 HBGA         6.3810    26.0100    20.4280 h1         1 BD8       0.058700
    107 HBFA         8.8060    26.8530    20.3890 hc         1 BD8       0.063700
    108 HBFB         8.5080    27.4730    18.7810 hc         1 BD8       0.063700
    109 HAP          7.0300    29.4540    18.4120 ha         1 BD8       0.123000
    110 HAL          6.0220    31.5030    19.4650 ha         1 BD8       0.121000
    111 HAI          5.8770    31.5960    21.9800 ha         1 BD8       0.126000
    112 HAM          6.7340    29.6630    23.3220 h4         1 BD8       0.022100
@<TRIPOS>BOND
     1     1     2 1   
     2     1    56 1   
     3     1    57 1   
     4     1    58 1   
     5     2     3 1   
     6     2    59 1   
     7     2    60 1   
     8     3     4 1   
     9     3    61 1   
    10     3    62 1   
    11     4     5 1   
    12     4    63 1   
    13     4    64 1   
    14     5     6 1   
    15     5    65 1   
    16     5    66 1   
    17     6     7 1   
    18     6    67 1   
    19     6    68 1   
    20     7     8 1   
    21     7    69 1   
    22     7    70 1   
    23     8     9 1   
    24     8    71 1   
    25     8    72 1   
    26     9    10 1   
    27     9    73 1   
    28     9    74 1   
    29    10    11 1   
    30    10    75 1   
    31    10    76 1   
    32    11    12 2   
    33    11    13 1   
    34    13    14 1   
    35    13    77 1   
    36    14    15 1   
    37    14    21 1   
    38    14    78 1   
    39    15    16 1   
    40    15    79 1   
    41    15    80 1   
    42    16    17 2   
    43    16    20 1   
    44    17    18 1   
    45    17    81 1   
    46    18    19 1   
    47    18    82 1   
    48    19    20 2   
    49    19    83 1   
    50    21    22 2   
    51    21    23 1   
    52    23    24 1   
    53    23    84 1   
    54    24    25 1   
    55    24    32 1   
    56    24    85 1   
    57    25    26 1   
    58    25    86 1   
    59    25    87 1   
    60    26    27 ar  
    61    26    31 ar  
    62    27    28 ar  
    63    27    88 1   
    64    28    29 ar  
    65    28    89 1   
    66    29    30 ar  
    67    29    90 1   
    68    30    31 ar  
    69    30    91 1   
    70    31    92 1   
    71    32    33 2   
    72    32    34 1   
    73    34    35 1   
    74    34    93 1   
    75    35    36 1   
    76    35    44 1   
    77    35    94 1   
    78    36    37 1   
    79    36    95 1   
    80    36    96 1   
    81    37    38 ar  
    82    37    43 ar  
    83    38    39 ar  
    84    38    97 1   
    85    39    40 ar  
    86    39    98 1   
    87    40    41 1   
    88    40    42 ar  
    89    41    99 1   
    90    42    43 ar  
    91    42   100 1   
    92    43   101 1   
    93    44    45 2   
    94    44    46 1   
    95    46    47 1   
    96    46    48 1   
    97    47   102 1   
    98    47   103 1   
    99    47   104 1   
   100    48    49 1   
   101    48   105 1   
   102    48   106 1   
   103    49    50 1   
   104    49   107 1   
   105    49   108 1   
   106    50    51 ar  
   107    50    55 ar  
   108    51    52 ar  
   109    51   109 1   
   110    52    53 ar  
   111    52   110 1   
   112    53    54 ar  
   113    53   111 1   
   114    54    55 ar  
   115    54   112 1   
@<TRIPOS>SUBSTRUCTURE
     1 BD8         1 TEMP              0 ****  ****    0 ROOT
