@<TRIPOS>MOLECULE
BD8
  112   115     1     0     0
SMALL
abcg2


@<TRIPOS>ATOM
      1 CAA         -3.0350    26.9420    28.9140 c3         1 BD8      -0.088100
      2 CAW         -1.5280    26.7330    28.7900 c3         1 BD8      -0.075400
      3 CAX         -1.1110    25.2720    28.9490 c3         1 BD8      -0.077400
      4 CAY          0.3960    25.0520    28.8290 c3         1 BD8      -0.076400
      5 CAZ          0.8010    23.5860    28.9710 c3         1 BD8      -0.073400
      6 CBA          2.3110    23.3350    28.9360 c3         1 BD8      -0.074400
      7 CBB          2.9720    23.6780    27.6010 c3         1 BD8      -0.076400
      8 CBC          4.4780    23.4020    27.5580 c3         1 BD8      -0.075400
      9 CBD          4.8880    21.9380    27.7370 c3         1 BD8      -0.067400
     10 CBE          4.2510    21.0110    26.7030 c3         1 BD8      -0.156400
     11 CBQ          5.0000    19.7130    26.4980 c          1 BD8       0.586100
     12 OAC          6.2290    19.6430    26.5340 o          1 BD8      -0.600100
     13 NBM          4.2490    18.6340    26.1730 ns         1 BD8      -0.515900
     14 CCA          4.8620    17.4130    25.6850 c3         1 BD8       0.038700
     15 CBJ          3.7970    16.3280    25.4580 c3         1 BD8      -0.096700
     16 CBY          3.1100    15.9320    26.7220 cc         1 BD8       0.236300
     17 CAV          1.7990    16.1180    27.0770 cd         1 BD8      -0.228000
     18 NBP          1.6810    15.6030    28.3460 na         1 BD8      -0.308500
     19 CAU          2.8970    15.1330    28.7130 cd         1 BD8       0.398400
     20 NBL          3.7870    15.3150    27.7570 nc         1 BD8      -0.664000
     21 CBS          5.6710    17.6590    24.4030 c          1 BD8       0.589100
     22 OAE          6.7020    17.0320    24.1730 o          1 BD8      -0.587100
     23 N            5.1530    18.5800    23.5730 ns         1 BD8      -0.495900
     24 CA           5.8850    19.2050    22.4930 c3         1 BD8       0.039700
     25 CB           5.5430    18.5980    21.1100 c3         1 BD8      -0.036100
     26 CG           6.2550    19.3150    19.9940 ca         1 BD8      -0.094300
     27 CD1          5.6280    20.3540    19.3030 ca         1 BD8      -0.104500
     28 CE1          6.3170    21.0890    18.3440 ca         1 BD8      -0.108500
     29 CZ           7.6450    20.7900    18.0570 ca         1 BD8      -0.105000
     30 CE2          8.2760    19.7480    18.7310 ca         1 BD8      -0.108500
     31 CD2          7.5850    19.0190    19.6930 ca         1 BD8      -0.104500
     32 C            5.5140    20.6870    22.5070 c          1 BD8       0.585100
     33 O            4.3430    21.0350    22.6750 o          1 BD8      -0.647100
     34 NBO          6.5190    21.5370    22.2890 ns         1 BD8      -0.473900
     35 CCB          6.3100    22.9500    22.0570 c3         1 BD8       0.041700
     36 CBI          6.1600    23.7350    23.3870 c3         1 BD8      -0.032100
     37 CBW          7.3800    23.6950    24.2660 ca         1 BD8      -0.126300
     38 CAS          7.5740    22.6540    25.1750 ca         1 BD8      -0.062000
     39 CAQ          8.7080    22.5940    25.9750 ca         1 BD8      -0.165500
     40 CBU          9.6770    23.5890    25.8750 ca         1 BD8       0.131100
     41 OAG         10.7760    23.4970    26.6840 oh         1 BD8      -0.538100
     42 CAR          9.5020    24.6370    24.9740 ca         1 BD8      -0.165500
     43 CAT          8.3620    24.6810    24.1810 ca         1 BD8      -0.062000
     44 CBT          7.4950    23.4300    21.2120 c          1 BD8       0.591100
     45 OAF          8.5490    22.7850    21.2300 o          1 BD8      -0.605100
     46 NCC          7.3640    24.5450    20.4710 n          1 BD8      -0.408800
     47 CAB          8.5170    24.9660    19.6770 c3         1 BD8       0.086300
     48 CBG          6.1810    25.3970    20.4120 c3         1 BD8       0.109000
     49 CBF          6.4070    26.7720    21.0580 c3         1 BD8      -0.150700
     50 CBX          5.1420    27.5830    21.0340 ca         1 BD8       0.341300
     51 CAP          4.9230    28.5600    20.0640 ca         1 BD8      -0.156000
     52 CAL          3.7220    29.2560    20.0610 ca         1 BD8      -0.069000
     53 CAI          2.7710    28.9530    21.0280 ca         1 BD8      -0.162000
     54 CAM          3.0710    27.9640    21.9560 ca         1 BD8       0.341900
     55 NBK          4.2240    27.2900    21.9660 nb         1 BD8      -0.674000
     56 HAA         -3.5730    26.3680    28.1550 hc         1 BD8       0.031367
     57 HAAA        -3.3960    26.6170    29.8940 hc         1 BD8       0.031367
     58 HAAB        -3.3050    27.9930    28.7910 hc         1 BD8       0.031367
     59 HAW         -1.1870    27.0990    27.8160 hc         1 BD8       0.036200
     60 HAWA        -1.0100    27.3370    29.5430 hc         1 BD8       0.036200
     61 HAX         -1.4550    24.9030    29.9220 hc         1 BD8       0.035700
     62 HAXA        -1.6260    24.6670    28.1930 hc         1 BD8       0.035700
     63 HAY          0.7340    25.4410    27.8640 hc         1 BD8       0.038700
     64 HAYA         0.9100    25.6430    29.5960 hc         1 BD8       0.038700
     65 HAZ          0.4010    23.2020    29.9160 hc         1 BD8       0.035200
     66 HAZA         0.3230    23.0010    28.1760 hc         1 BD8       0.035200
     67 HBA          2.7930    23.9130    29.7340 hc         1 BD8       0.038200
     68 HBAA         2.4930    22.2820    29.1700 hc         1 BD8       0.038200
     69 HBB          2.4710    23.1210    26.8020 hc         1 BD8       0.037200
     70 HBBA         2.8130    24.7350    27.3750 hc         1 BD8       0.037200
     71 HBC          4.8700    23.7510    26.5970 hc         1 BD8       0.044200
     72 HBCA         4.9720    24.0020    28.3290 hc         1 BD8       0.044200
     73 HBD          5.9720    21.8660    27.6450 hc         1 BD8       0.056200
     74 HBDA         4.6360    21.5880    28.7410 hc         1 BD8       0.056200
     75 HBE          3.2030    20.8100    26.9330 hc         1 BD8       0.060200
     76 HBEA         4.2640    21.4980    25.7200 hc         1 BD8       0.060200
     77 HNBM         3.2440    18.7180    26.1600 hn         1 BD8       0.316500
     78 HCA          5.5840    17.0510    26.4160 h1         1 BD8       0.117700
     79 HBJ          3.0620    16.6870    24.7350 hc         1 BD8       0.064700
     80 HBJA         4.2990    15.4650    25.0150 hc         1 BD8       0.064700
     81 HAV          0.9670    16.5560    26.5530 h4         1 BD8       0.155000
     82 HNBP         0.8400    15.5730    28.9020 hn         1 BD8       0.353000
     83 HAU          3.0760    14.6720    29.6720 h5         1 BD8       0.059100
     84 HN           4.3110    19.0640    23.8550 hn         1 BD8       0.326500
     85 HA           6.9500    19.0780    22.6830 h1         1 BD8       0.090700
     86 HB           5.8250    17.5450    21.1400 hc         1 BD8       0.065700
     87 HBF          4.4610    18.6550    20.9740 hc         1 BD8       0.065700
     88 HD1          4.5980    20.5990    19.5330 ha         1 BD8       0.117000
     89 HE1          5.8180    21.8980    17.8250 ha         1 BD8       0.112000
     90 HZ           8.1840    21.3630    17.3140 ha         1 BD8       0.110000
     91 HE2          9.3090    19.5060    18.5110 ha         1 BD8       0.112000
     92 HD2          8.0840    18.2160    20.2230 ha         1 BD8       0.117000
     93 HNBO         7.4580    21.1990    22.1320 hn         1 BD8       0.356500
     94 HCB          5.3790    23.0520    21.5010 h1         1 BD8       0.078700
     95 HBI          5.8970    24.7660    23.1550 hc         1 BD8       0.064700
     96 HBIA         5.3080    23.2950    23.9060 hc         1 BD8       0.064700
     97 HAS          6.8290    21.8750    25.2720 ha         1 BD8       0.115000
     98 HAQ          8.8440    21.7860    26.6820 ha         1 BD8       0.124500
     99 HOAG        11.3650    24.2460    26.5190 ho         1 BD8       0.458000
    100 HAR         10.2540    25.4150    24.9000 ha         1 BD8       0.124500
    101 HAT          8.2400    25.5020    23.4850 ha         1 BD8       0.115000
    102 HAB          8.1860    25.7060    18.9530 h1         1 BD8       0.045367
    103 HABA         9.2930    25.4050    20.3070 h1         1 BD8       0.045367
    104 HABB         8.9380    24.1100    19.1530 h1         1 BD8       0.045367
    105 HBG          5.9110    25.5300    19.3610 h1         1 BD8       0.058700
    106 HBGA         5.3450    24.9060    20.8980 h1         1 BD8       0.058700
    107 HBFA         6.7230    26.6320    22.0920 hc         1 BD8       0.063700
    108 HBFB         7.2010    27.3020    20.5310 hc         1 BD8       0.063700
    109 HAP          5.6890    28.7690    19.3280 ha         1 BD8       0.123000
    110 HAL          3.5320    30.0210    19.3190 ha         1 BD8       0.121000
    111 HAI          1.8210    29.4700    21.0670 ha         1 BD8       0.126000
    112 HAM          2.3550    27.7020    22.7280 h4         1 BD8       0.022100
@<TRIPOS>BOND
     1     1     2 1   
     2     1    56 1   
     3     1    57 1   
     4     1    58 1   
     5     2     3 1   
     6     2    59 1   
     7     2    60 1   
     8     3     4 1   
     9     3    61 1   
    10     3    62 1   
    11     4     5 1   
    12     4    63 1   
    13     4    64 1   
    14     5     6 1   
    15     5    65 1   
    16     5    66 1   
    17     6     7 1   
    18     6    67 1   
    19     6    68 1   
    20     7     8 1   
    21     7    69 1   
    22     7    70 1   
    23     8     9 1   
    24     8    71 1   
    25     8    72 1   
    26     9    10 1   
    27     9    73 1   
    28     9    74 1   
    29    10    11 1   
    30    10    75 1   
    31    10    76 1   
    32    11    12 2   
    33    11    13 1   
    34    13    14 1   
    35    13    77 1   
    36    14    15 1   
    37    14    21 1   
    38    14    78 1   
    39    15    16 1   
    40    15    79 1   
    41    15    80 1   
    42    16    17 2   
    43    16    20 1   
    44    17    18 1   
    45    17    81 1   
    46    18    19 1   
    47    18    82 1   
    48    19    20 2   
    49    19    83 1   
    50    21    22 2   
    51    21    23 1   
    52    23    24 1   
    53    23    84 1   
    54    24    25 1   
    55    24    32 1   
    56    24    85 1   
    57    25    26 1   
    58    25    86 1   
    59    25    87 1   
    60    26    27 ar  
    61    26    31 ar  
    62    27    28 ar  
    63    27    88 1   
    64    28    29 ar  
    65    28    89 1   
    66    29    30 ar  
    67    29    90 1   
    68    30    31 ar  
    69    30    91 1   
    70    31    92 1   
    71    32    33 2   
    72    32    34 1   
    73    34    35 1   
    74    34    93 1   
    75    35    36 1   
    76    35    44 1   
    77    35    94 1   
    78    36    37 1   
    79    36    95 1   
    80    36    96 1   
    81    37    38 ar  
    82    37    43 ar  
    83    38    39 ar  
    84    38    97 1   
    85    39    40 ar  
    86    39    98 1   
    87    40    41 1   
    88    40    42 ar  
    89    41    99 1   
    90    42    43 ar  
    91    42   100 1   
    92    43   101 1   
    93    44    45 2   
    94    44    46 1   
    95    46    47 1   
    96    46    48 1   
    97    47   102 1   
    98    47   103 1   
    99    47   104 1   
   100    48    49 1   
   101    48   105 1   
   102    48   106 1   
   103    49    50 1   
   104    49   107 1   
   105    49   108 1   
   106    50    51 ar  
   107    50    55 ar  
   108    51    52 ar  
   109    51   109 1   
   110    52    53 ar  
   111    52   110 1   
   112    53    54 ar  
   113    53   111 1   
   114    54    55 ar  
   115    54   112 1   
@<TRIPOS>SUBSTRUCTURE
     1 BD8         1 TEMP              0 ****  ****    0 ROOT
