@<TRIPOS>MOLECULE
BD9
  109   112     1     0     0
SMALL
abcg2


@<TRIPOS>ATOM
      1 C11          2.7720    26.1380    18.2050 c3         1 BD9      -0.088100
      2 C10          3.3850    27.4070    17.6120 c3         1 BD9      -0.071400
      3 C9           4.9150    27.4020    17.4570 c3         1 BD9      -0.071400
      4 C1           5.7100    26.9070    18.6650 c3         1 BD9      -0.079400
      5 C2           7.1520    26.5230    18.3300 c3         1 BD9      -0.074400
      6 C3           7.9820    26.1810    19.5870 c3         1 BD9      -0.071400
      7 C4           8.3230    24.6910    19.8240 c3         1 BD9      -0.070400
      8 C5           7.3770    23.6680    19.1910 c3         1 BD9      -0.075400
      9 C6           7.5540    22.2760    19.7950 c3         1 BD9      -0.069400
     10 C7           6.8960    21.1640    18.9560 c3         1 BD9      -0.147400
     11 C8           6.4560    20.0240    19.8460 c          1 BD9       0.592100
     12 O1           7.2050    19.5210    20.6850 o          1 BD9      -0.595100
     13 N1           5.1720    19.6240    19.7130 ns         1 BD9      -0.497900
     14 C12          4.5130    18.7980    20.7120 c3         1 BD9       0.056700
     15 C27          4.9700    17.3280    20.6630 c3         1 BD9      -0.015100
     16 C28          4.0650    16.4020    21.4110 cc         1 BD9      -0.212300
     17 C29          2.7090    16.1980    21.3680 cd         1 BD9       0.234900
     18 N6           2.3340    15.2330    22.2820 nd         1 BD9      -0.688000
     19 C30          3.4470    14.8570    22.8750 cc         1 BD9       0.407400
     20 N7           4.5160    15.5330    22.3820 na         1 BD9      -0.308500
     21 C13          4.6000    19.5310    22.0660 c          1 BD9       0.589100
     22 O2           4.3880    20.7420    22.1080 o          1 BD9      -0.624100
     23 N2           4.8570    18.8230    23.1740 ns         1 BD9      -0.470900
     24 C14          4.9230    19.4650    24.4730 c3         1 BD9       0.042700
     25 C31          4.9030    18.4190    25.5870 c3         1 BD9      -0.099700
     26 C32          3.6520    17.6010    25.6320 cc         1 BD9       0.219300
     27 C33          2.4930    17.7260    24.9100 cd         1 BD9      -0.204000
     28 N8           1.6620    16.7300    25.3650 na         1 BD9      -0.296500
     29 C34          2.3300    16.0380    26.3170 cd         1 BD9       0.390400
     30 N9           3.5350    16.5390    26.5100 nc         1 BD9      -0.688000
     31 C15          6.2070    20.2990    24.5920 c          1 BD9       0.585100
     32 O3           7.3060    19.8150    24.3260 o          1 BD9      -0.610100
     33 N3           6.0390    21.5510    25.0360 ns         1 BD9      -0.483900
     34 C16          7.1540    22.4210    25.3380 c3         1 BD9       0.040700
     35 C17          7.7050    23.1510    24.0790 c3         1 BD9      -0.032100
     36 C38          6.8980    24.3320    23.6110 ca         1 BD9      -0.123300
     37 C37          5.8140    24.1900    22.7420 ca         1 BD9      -0.060500
     38 C36          5.0710    25.2900    22.3320 ca         1 BD9      -0.170000
     39 C35          5.3980    26.5610    22.8000 ca         1 BD9       0.131100
     40 O5           4.6410    27.6120    22.3610 oh         1 BD9      -0.542100
     41 C40          6.4750    26.7250    23.6660 ca         1 BD9      -0.170000
     42 C39          7.2150    25.6160    24.0580 ca         1 BD9      -0.060500
     43 C18          6.6750    23.4180    26.3970 c          1 BD9       0.595100
     44 O4           5.4670    23.6530    26.4950 o          1 BD9      -0.610100
     45 N4           7.5940    24.0570    27.1460 n          1 BD9      -0.401800
     46 C19          7.1330    25.0880    28.0710 c3         1 BD9       0.082300
     47 C20          9.0040    23.6890    27.2430 c3         1 BD9       0.108000
     48 C21          9.3240    22.9320    28.5420 c3         1 BD9      -0.153700
     49 C24          8.5410    21.6520    28.6660 ca         1 BD9       0.338300
     50 C25          8.8360    20.5470    27.8640 ca         1 BD9      -0.163000
     51 C26          8.0560    19.4060    27.9630 ca         1 BD9      -0.064000
     52 C22          7.0030    19.3920    28.8700 ca         1 BD9      -0.166000
     53 C23          6.7830    20.5280    29.6340 ca         1 BD9       0.339900
     54 N5           7.5260    21.6370    29.5400 nb         1 BD9      -0.670000
     55 H11          2.9890    25.2660    17.5820 hc         1 BD9       0.031700
     56 H11A         3.1480    25.9300    19.2080 hc         1 BD9       0.031700
     57 H11B         1.6870    26.2360    18.2740 hc         1 BD9       0.031700
     58 H10          2.9510    27.5650    16.6190 hc         1 BD9       0.034200
     59 H10A         3.0790    28.2720    18.2110 hc         1 BD9       0.034200
     60 H9           5.1870    26.8060    16.5780 hc         1 BD9       0.032200
     61 H9A          5.2330    28.4260    17.2330 hc         1 BD9       0.032200
     62 H1           5.7230    27.6800    19.4420 hc         1 BD9       0.042700
     63 H1A          5.2180    26.0420    19.1140 hc         1 BD9       0.042700
     64 H2           7.1290    25.6730    17.6450 hc         1 BD9       0.035200
     65 H2A          7.6260    27.3380    17.7740 hc         1 BD9       0.035200
     66 H3           8.9130    26.7520    19.5730 hc         1 BD9       0.038200
     67 H3A          7.4310    26.5390    20.4600 hc         1 BD9       0.038200
     68 H4           9.3410    24.4760    19.4850 hc         1 BD9       0.037200
     69 H4A          8.3260    24.5190    20.9050 hc         1 BD9       0.037200
     70 H5           6.3370    23.9750    19.3400 hc         1 BD9       0.039200
     71 H5A          7.5350    23.6250    18.1100 hc         1 BD9       0.039200
     72 H6           8.6150    22.0520    19.9270 hc         1 BD9       0.055200
     73 H6A          7.1170    22.2770    20.7950 hc         1 BD9       0.055200
     74 H7           6.0400    21.5610    18.4070 hc         1 BD9       0.056700
     75 H7A          7.6040    20.7810    18.2180 hc         1 BD9       0.056700
     76 HN1          4.5830    20.1110    19.0580 hn         1 BD9       0.321500
     77 H12          3.4510    18.8210    20.4600 h1         1 BD9       0.070700
     78 H27          4.9920    17.0490    19.6070 hc         1 BD9       0.075700
     79 H27A         5.9920    17.2380    21.0300 hc         1 BD9       0.075700
     80 H29          1.9900    16.6910    20.7340 h4         1 BD9       0.036100
     81 H30          3.5380    14.1200    23.6570 h5         1 BD9       0.062100
     82 HN7          5.4760    15.4050    22.6660 hn         1 BD9       0.358000
     83 HN2          5.0860    17.8460    23.1170 hn         1 BD9       0.330500
     84 H14          4.0590    20.1240    24.5690 h1         1 BD9       0.077700
     85 H31          5.7700    17.7630    25.4750 hc         1 BD9       0.070700
     86 H31A         5.0350    18.9420    26.5380 hc         1 BD9       0.070700
     87 H33          2.1950    18.4010    24.1280 h4         1 BD9       0.164000
     88 HN8          0.7490    16.5110    25.0000 hn         1 BD9       0.361000
     89 H34          1.9010    15.1930    26.8310 h5         1 BD9       0.057100
     90 HN3          5.1190    21.9150    25.2350 hn         1 BD9       0.349500
     91 H16          7.9490    21.7900    25.7230 h1         1 BD9       0.080700
     92 H17          8.7210    23.4780    24.3030 hc         1 BD9       0.061700
     93 H17A         7.7790    22.3980    23.2950 hc         1 BD9       0.061700
     94 H37          5.5500    23.2060    22.3750 ha         1 BD9       0.121000
     95 H36          4.2430    25.1880    21.6420 ha         1 BD9       0.118500
     96 HO5          4.9340    28.4300    22.7830 ho         1 BD9       0.459000
     97 H40          6.7280    27.7120    24.0370 ha         1 BD9       0.118500
     98 H39          8.0560    25.7550    24.7260 ha         1 BD9       0.121000
     99 H19          6.8480    24.6610    29.0350 h1         1 BD9       0.048033
    100 H19A         7.9400    25.8030    28.2240 h1         1 BD9       0.048033
    101 H19B         6.2730    25.5950    27.6460 h1         1 BD9       0.048033
    102 H20          9.2900    23.0900    26.3860 h1         1 BD9       0.053200
    103 H20A         9.5960    24.6050    27.2000 h1         1 BD9       0.053200
    104 H21         10.3970    22.7250    28.5510 hc         1 BD9       0.066200
    105 H21A         9.0990    23.5630    29.4010 hc         1 BD9       0.066200
    106 H25          9.6650    20.5910    27.1690 ha         1 BD9       0.123000
    107 H26          8.2610    18.5440    27.3400 ha         1 BD9       0.128000
    108 H22          6.3690    18.5230    28.9860 ha         1 BD9       0.130000
    109 H23          5.9730    20.5550    30.3560 h4         1 BD9       0.021100
@<TRIPOS>BOND
     1     1     2 1   
     2     1    55 1   
     3     1    56 1   
     4     1    57 1   
     5     2     3 1   
     6     2    58 1   
     7     2    59 1   
     8     3     4 1   
     9     3    60 1   
    10     3    61 1   
    11     4     5 1   
    12     4    62 1   
    13     4    63 1   
    14     5     6 1   
    15     5    64 1   
    16     5    65 1   
    17     6     7 1   
    18     6    66 1   
    19     6    67 1   
    20     7     8 1   
    21     7    68 1   
    22     7    69 1   
    23     8     9 1   
    24     8    70 1   
    25     8    71 1   
    26     9    10 1   
    27     9    72 1   
    28     9    73 1   
    29    10    11 1   
    30    10    74 1   
    31    10    75 1   
    32    11    12 2   
    33    11    13 1   
    34    13    14 1   
    35    13    76 1   
    36    14    15 1   
    37    14    21 1   
    38    14    77 1   
    39    15    16 1   
    40    15    78 1   
    41    15    79 1   
    42    16    17 2   
    43    16    20 1   
    44    17    18 1   
    45    17    80 1   
    46    18    19 2   
    47    19    20 1   
    48    19    81 1   
    49    20    82 1   
    50    21    22 2   
    51    21    23 1   
    52    23    24 1   
    53    23    83 1   
    54    24    25 1   
    55    24    31 1   
    56    24    84 1   
    57    25    26 1   
    58    25    85 1   
    59    25    86 1   
    60    26    27 2   
    61    26    30 1   
    62    27    28 1   
    63    27    87 1   
    64    28    29 1   
    65    28    88 1   
    66    29    30 2   
    67    29    89 1   
    68    31    32 2   
    69    31    33 1   
    70    33    34 1   
    71    33    90 1   
    72    34    35 1   
    73    34    43 1   
    74    34    91 1   
    75    35    36 1   
    76    35    92 1   
    77    35    93 1   
    78    36    37 ar  
    79    36    42 ar  
    80    37    38 ar  
    81    37    94 1   
    82    38    39 ar  
    83    38    95 1   
    84    39    40 1   
    85    39    41 ar  
    86    40    96 1   
    87    41    42 ar  
    88    41    97 1   
    89    42    98 1   
    90    43    44 2   
    91    43    45 1   
    92    45    46 1   
    93    45    47 1   
    94    46    99 1   
    95    46   100 1   
    96    46   101 1   
    97    47    48 1   
    98    47   102 1   
    99    47   103 1   
   100    48    49 1   
   101    48   104 1   
   102    48   105 1   
   103    49    50 ar  
   104    49    54 ar  
   105    50    51 ar  
   106    50   106 1   
   107    51    52 ar  
   108    51   107 1   
   109    52    53 ar  
   110    52   108 1   
   111    53    54 ar  
   112    53   109 1   
@<TRIPOS>SUBSTRUCTURE
     1 BD9         1 TEMP              0 ****  ****    0 ROOT
