@<TRIPOS>MOLECULE
BD9
  109   112     1     0     0
SMALL
No Charge or Current Charge


@<TRIPOS>ATOM
      1 C11          5.7660    25.3390    13.0840 c3         1 BD9      -0.088100
      2 C10          5.1470    26.7420    12.9060 c3         1 BD9      -0.071400
      3 C9           4.9570    27.5290    14.2250 c3         1 BD9      -0.071400
      4 C1           3.9220    26.9100    15.1950 c3         1 BD9      -0.079400
      5 C2           3.7290    27.7510    16.4800 c3         1 BD9      -0.074400
      6 C3           2.7170    27.1630    17.4980 c3         1 BD9      -0.071400
      7 C4           3.3140    26.2360    18.5890 c3         1 BD9      -0.070400
      8 C5           3.9500    24.9240    18.0770 c3         1 BD9      -0.075400
      9 C6           4.3830    23.9780    19.2190 c3         1 BD9      -0.069400
     10 C7           4.9830    22.6470    18.7080 c3         1 BD9      -0.147400
     11 C8           5.4620    21.7740    19.8730 c          1 BD9       0.592100
     12 O1           6.5020    22.0030    20.4720 o          1 BD9      -0.595100
     13 N1           4.6450    20.7020    20.1710 ns         1 BD9      -0.497900
     14 C12          4.8470    19.7520    21.2950 c3         1 BD9       0.056700
     15 C27          6.2210    19.0180    21.2160 c3         1 BD9      -0.015100
     16 C28          6.2860    17.7150    21.9780 cc         1 BD9      -0.212300
     17 C29          5.7550    16.4890    21.6610 cd         1 BD9       0.234900
     18 N6           6.0780    15.5580    22.6280 nd         1 BD9      -0.688000
     19 C30          6.8120    16.2000    23.5260 cc         1 BD9       0.407400
     20 N7           6.9640    17.5160    23.1640 na         1 BD9      -0.308500
     21 C13          4.5770    20.4480    22.6700 c          1 BD9       0.589100
     22 O2           4.1270    21.5840    22.7780 o          1 BD9      -0.624100
     23 N2           4.8980    19.6980    23.7780 ns         1 BD9      -0.470900
     24 C14          4.9540    20.2040    25.1650 c3         1 BD9       0.042700
     25 C31          4.1190    19.3050    26.1100 c3         1 BD9      -0.099700
     26 C32          2.6480    19.2470    25.7850 cc         1 BD9       0.219300
     27 C33          1.8830    20.1740    25.1290 cd         1 BD9      -0.204000
     28 N8           0.6070    19.6310    25.1070 na         1 BD9      -0.296500
     29 C34          0.6600    18.4100    25.7520 cd         1 BD9       0.390400
     30 N9           1.8970    18.1720    26.1690 nc         1 BD9      -0.688000
     31 C15          6.4380    20.2750    25.6190 c          1 BD9       0.585100
     32 O3           7.3280    19.6060    25.1060 o          1 BD9      -0.610100
     33 N3           6.6940    21.1600    26.6400 ns         1 BD9      -0.483900
     34 C16          8.0390    21.4540    27.1810 c3         1 BD9       0.040700
     35 C17          8.9090    22.2620    26.1770 c3         1 BD9      -0.032100
     36 C38          8.1480    23.3870    25.4770 ca         1 BD9      -0.123300
     37 C37          7.6130    23.1900    24.1870 ca         1 BD9      -0.060500
     38 C36          6.9020    24.2220    23.5500 ca         1 BD9      -0.170000
     39 C35          6.7260    25.4560    24.1920 ca         1 BD9       0.131100
     40 O5           6.0390    26.4520    23.5650 oh         1 BD9      -0.542100
     41 C40          7.2600    25.6620    25.4750 ca         1 BD9      -0.170000
     42 C39          7.9690    24.6300    26.1170 ca         1 BD9      -0.060500
     43 C18          7.9250    22.1600    28.5700 c          1 BD9       0.595100
     44 O4           6.8830    22.7260    28.8930 o          1 BD9      -0.610100
     45 N4           9.0450    22.1880    29.4430 n          1 BD9      -0.401800
     46 C19          8.9630    22.9550    30.7070 c3         1 BD9       0.082300
     47 C20         10.2110    21.2790    29.2900 c3         1 BD9       0.108000
     48 C21         10.0720    19.9640    30.0910 c3         1 BD9      -0.153700
     49 C24          8.9880    19.0530    29.5390 ca         1 BD9       0.338300
     50 C25          9.2490    18.2030    28.4470 ca         1 BD9      -0.163000
     51 C26          8.2060    17.4270    27.9150 ca         1 BD9      -0.064000
     52 C22          6.9380    17.5310    28.5080 ca         1 BD9      -0.166000
     53 C23          6.7640    18.3950    29.6030 ca         1 BD9       0.339900
     54 N5           7.7670    19.1460    30.1130 nb         1 BD9      -0.670000
     55 H11          6.7220    25.4020    13.6180 hc         1 BD9       0.031700
     56 H11A         5.0960    24.6780    13.6450 hc         1 BD9       0.031700
     57 H11B         5.9510    24.8800    12.1050 hc         1 BD9       0.031700
     58 H10          5.7990    27.3260    12.2440 hc         1 BD9       0.034200
     59 H10A         4.1820    26.6500    12.3920 hc         1 BD9       0.034200
     60 H9           5.9250    27.6170    14.7330 hc         1 BD9       0.032200
     61 H9A          4.6400    28.5490    13.9760 hc         1 BD9       0.032200
     62 H1           2.9580    26.8190    14.6790 hc         1 BD9       0.042700
     63 H1A          4.2350    25.8950    15.4560 hc         1 BD9       0.042700
     64 H2           4.6980    27.9050    16.9740 hc         1 BD9       0.035200
     65 H2A          3.3750    28.7460    16.1820 hc         1 BD9       0.035200
     66 H3           2.2350    28.0020    18.0140 hc         1 BD9       0.038200
     67 H3A          1.9150    26.6380    16.9650 hc         1 BD9       0.038200
     68 H4           4.0620    26.7960    19.1650 hc         1 BD9       0.037200
     69 H4A          2.5110    25.9820    19.2920 hc         1 BD9       0.037200
     70 H5           3.2370    24.4040    17.4250 hc         1 BD9       0.039200
     71 H5A          4.8360    25.1610    17.4760 hc         1 BD9       0.039200
     72 H6           5.1210    24.4910    19.8490 hc         1 BD9       0.055200
     73 H6A          3.5180    23.7590    19.8580 hc         1 BD9       0.055200
     74 H7           4.2140    22.1200    18.1320 hc         1 BD9       0.056700
     75 H7A          5.8410    22.8760    18.0650 hc         1 BD9       0.056700
     76 HN1          3.8040    20.6120    19.6130 hn         1 BD9       0.321500
     77 H12          4.0690    18.9830    21.1970 h1         1 BD9       0.070700
     78 H27          6.4400    18.8070    20.1610 hc         1 BD9       0.075700
     79 H27A         7.0160    19.6900    21.5590 hc         1 BD9       0.075700
     80 H29          5.1600    16.2270    20.7940 h4         1 BD9       0.036100
     81 H30          7.2440    15.7870    24.4310 h5         1 BD9       0.062100
     82 HN7          7.4690    18.2110    23.7130 hn         1 BD9       0.358000
     83 HN2          5.2650    18.7710    23.5930 hn         1 BD9       0.330500
     84 H14          4.5570    21.2270    25.2020 h1         1 BD9       0.077700
     85 H31          4.5380    18.2920    26.0950 hc         1 BD9       0.070700
     86 H31A         4.2320    19.6670    27.1390 hc         1 BD9       0.070700
     87 H33          2.1430    21.1340    24.6950 h4         1 BD9       0.164000
     88 HN8         -0.2270    20.0390    24.7000 hn         1 BD9       0.361000
     89 H34         -0.2110    17.7760    25.8780 h5         1 BD9       0.057100
     90 HN3          5.9100    21.6840    27.0140 hn         1 BD9       0.349500
     91 H16          8.5300    20.4920    27.3510 h1         1 BD9       0.080700
     92 H17          9.7930    22.6660    26.6870 hc         1 BD9       0.061700
     93 H17A         9.3010    21.5660    25.4250 hc         1 BD9       0.061700
     94 H37          7.7420    22.2360    23.6790 ha         1 BD9       0.121000
     95 H36          6.4870    24.0610    22.5580 ha         1 BD9       0.118500
     96 HO5          6.0210    27.2360    24.1550 ho         1 BD9       0.459000
     97 H40          7.1290    26.6150    25.9810 ha         1 BD9       0.118500
     98 H39          8.3770    24.7960    27.1110 ha         1 BD9       0.121000
     99 H19          8.2170    22.4960    31.3690 h1         1 BD9       0.048033
    100 H19A         9.9340    22.9640    31.2190 h1         1 BD9       0.048033
    101 H19B         8.6680    23.9910    30.4950 h1         1 BD9       0.048033
    102 H20         10.4030    21.0500    28.2360 h1         1 BD9       0.053200
    103 H20A        11.1030    21.8080    29.6520 h1         1 BD9       0.053200
    104 H21         11.0340    19.4380    30.0640 hc         1 BD9       0.066200
    105 H21A         9.8840    20.1950    31.1460 hc         1 BD9       0.066200
    106 H25         10.2420    18.1620    28.0080 ha         1 BD9       0.123000
    107 H26          8.3750    16.7680    27.0650 ha         1 BD9       0.128000
    108 H22          6.0990    16.9530    28.1330 ha         1 BD9       0.130000
    109 H23          5.7920    18.4920    30.0840 h4         1 BD9       0.021100
@<TRIPOS>BOND
     1     1     2 1   
     2     1    55 1   
     3     1    56 1   
     4     1    57 1   
     5     2     3 1   
     6     2    58 1   
     7     2    59 1   
     8     3     4 1   
     9     3    60 1   
    10     3    61 1   
    11     4     5 1   
    12     4    62 1   
    13     4    63 1   
    14     5     6 1   
    15     5    64 1   
    16     5    65 1   
    17     6     7 1   
    18     6    66 1   
    19     6    67 1   
    20     7     8 1   
    21     7    68 1   
    22     7    69 1   
    23     8     9 1   
    24     8    70 1   
    25     8    71 1   
    26     9    10 1   
    27     9    72 1   
    28     9    73 1   
    29    10    11 1   
    30    10    74 1   
    31    10    75 1   
    32    11    12 2   
    33    11    13 1   
    34    13    14 1   
    35    13    76 1   
    36    14    15 1   
    37    14    21 1   
    38    14    77 1   
    39    15    16 1   
    40    15    78 1   
    41    15    79 1   
    42    16    17 2   
    43    16    20 1   
    44    17    18 1   
    45    17    80 1   
    46    18    19 2   
    47    19    20 1   
    48    19    81 1   
    49    20    82 1   
    50    21    22 2   
    51    21    23 1   
    52    23    24 1   
    53    23    83 1   
    54    24    25 1   
    55    24    31 1   
    56    24    84 1   
    57    25    26 1   
    58    25    85 1   
    59    25    86 1   
    60    26    27 2   
    61    26    30 1   
    62    27    28 1   
    63    27    87 1   
    64    28    29 1   
    65    28    88 1   
    66    29    30 2   
    67    29    89 1   
    68    31    32 2   
    69    31    33 1   
    70    33    34 1   
    71    33    90 1   
    72    34    35 1   
    73    34    43 1   
    74    34    91 1   
    75    35    36 1   
    76    35    92 1   
    77    35    93 1   
    78    36    37 ar  
    79    36    42 ar  
    80    37    38 ar  
    81    37    94 1   
    82    38    39 ar  
    83    38    95 1   
    84    39    40 1   
    85    39    41 ar  
    86    40    96 1   
    87    41    42 ar  
    88    41    97 1   
    89    42    98 1   
    90    43    44 2   
    91    43    45 1   
    92    45    46 1   
    93    45    47 1   
    94    46    99 1   
    95    46   100 1   
    96    46   101 1   
    97    47    48 1   
    98    47   102 1   
    99    47   103 1   
   100    48    49 1   
   101    48   104 1   
   102    48   105 1   
   103    49    50 ar  
   104    49    54 ar  
   105    50    51 ar  
   106    50   106 1   
   107    51    52 ar  
   108    51   107 1   
   109    52    53 ar  
   110    52   108 1   
   111    53    54 ar  
   112    53   109 1   
@<TRIPOS>SUBSTRUCTURE
     1 BD9         1 TEMP              0 ****  ****    0 ROOT
