@<TRIPOS>MOLECULE
BDC
  108   113     1     0     0
SMALL
bcc


@<TRIPOS>ATOM
      1 C5           7.7460    -4.2390    -1.9380 ca         1 BDC      -0.199800
      2 C6           7.2520    -5.3500    -1.3240 ca         1 BDC      -0.092000
      3 C7           5.8560    -5.5370    -1.2030 ca         1 BDC      -0.157500
      4 C8           4.9960    -4.5780    -1.6510 ca         1 BDC      -0.087000
      5 C9           4.6280    -2.3410    -2.7240 ca         1 BDC       0.281100
      6 C1           4.4560    -0.2790    -4.1060 ca         1 BDC      -0.083000
      7 C2           5.0460     0.7040    -4.8460 ca         1 BDC      -0.160000
      8 C3           6.4400     0.7100    -5.0150 ca         1 BDC      -0.041000
      9 C4           7.2460    -0.2500    -4.4590 ca         1 BDC      -0.219900
     10 C14          6.8740    -3.2400    -2.4530 ca         1 BDC       0.482100
     11 C13          5.4730    -3.3800    -2.2480 ca         1 BDC      -0.228300
     12 C11          5.2230    -1.3120    -3.5190 ca         1 BDC      -0.247300
     13 C12          6.6430    -1.3060    -3.6840 ca         1 BDC       0.502100
     14 N10          7.4240    -2.2300    -3.1280 nb         1 BDC      -0.760500
     15 N9           3.3090    -2.3140    -2.4640 nu         1 BDC      -0.765100
     16 CD1          8.7250    -0.0910    -4.7180 c          1 BDC       0.677700
     17 OD1          9.1340     0.8670    -5.3700 o          1 BDC      -0.638100
     18 CE1          2.6390    -2.7470    -1.2450 c3         1 BDC       0.222300
     19 CE3          0.9080    -2.1090     0.4750 c3         1 BDC      -0.075900
     20 CE2          1.6150    -1.7080    -0.8130 c3         1 BDC      -0.105400
     21 CE4         -0.1580    -1.1060     0.8970 c3         1 BDC      -0.074900
     22 ND1          9.5340    -1.0280    -4.2170 ns         1 BDC      -0.569400
     23 CD2         10.9710    -0.9900    -4.3400 c3         1 BDC       0.109500
     24 CD3         11.6150    -0.2150    -3.1920 c3         1 BDC       0.139800
     25 ND2         13.0610    -0.3250    -3.1840 n3         1 BDC      -0.716600
     26 CD7         13.6100     0.1400    -1.9280 c3         1 BDC       0.150850
     27 CD8         13.6780     0.3690    -4.2950 c3         1 BDC       0.150850
     28 CF4         -0.8500    -1.4860     2.2000 c3         1 BDC      -0.074900
     29 CF3         -1.9070    -0.4760     2.6270 c3         1 BDC      -0.075900
     30 CF2         -2.6180    -0.8710     3.9160 c3         1 BDC      -0.105400
     31 CF1         -3.6450     0.1520     4.3810 c3         1 BDC       0.222300
     32 N2          -2.9810     1.3890     4.7780 nu         1 BDC      -0.765100
     33 C10         -5.9310     4.8750     3.1070 ca         1 BDC      -0.199800
     34 C15         -7.0420     4.1600     3.4360 ca         1 BDC      -0.092000
     35 C16         -6.9230     2.9270     4.1200 ca         1 BDC      -0.157500
     36 C17         -5.6890     2.4200     4.4060 ca         1 BDC      -0.087000
     37 C18         -3.1980     2.6270     4.2900 ca         1 BDC       0.281100
     38 C19         -0.7630     3.1200     4.2980 ca         1 BDC      -0.083000
     39 C20          0.2720     3.9730     4.0580 ca         1 BDC      -0.160000
     40 C21          0.0150     5.2580     3.5510 ca         1 BDC      -0.041000
     41 C22         -1.2540     5.6890     3.2640 ca         1 BDC      -0.219900
     42 CE          -4.6310     4.3930     3.4250 ca         1 BDC       0.482100
     43 CD          -4.5050     3.1090     4.0260 ca         1 BDC      -0.228300
     44 CB          -2.1020     3.5080     4.0530 ca         1 BDC      -0.247300
     45 CC          -2.3640     4.8000     3.4980 ca         1 BDC       0.502100
     46 NA          -3.5940     5.1920     3.1710 nb         1 BDC      -0.760500
     47 CB1         -1.3560     7.0920     2.7220 c          1 BDC       0.677700
     48 O1X         -0.3370     7.7590     2.5540 o          1 BDC      -0.638100
     49 NB1         -2.5760     7.5600     2.4440 ns         1 BDC      -0.569400
     50 CB2         -2.8010     8.8930     1.9410 c3         1 BDC       0.109500
     51 CB3         -2.8750     9.9240     3.0660 c3         1 BDC       0.139800
     52 NB2         -3.0830    11.2710     2.5710 n3         1 BDC      -0.716600
     53 CB7         -1.8870    11.8230     1.9670 c3         1 BDC       0.150850
     54 CB8         -3.5690    12.1430     3.6190 c3         1 BDC       0.150850
     55 H5           8.8110    -4.0980    -2.0710 ha         1 BDC       0.147500
     56 H6           7.9290    -6.1080    -0.9490 ha         1 BDC       0.135000
     57 H7           5.4700    -6.4480    -0.7660 ha         1 BDC       0.133500
     58 H8           3.9360    -4.7670    -1.5780 ha         1 BDC       0.129000
     59 H1           3.3820    -0.2390    -3.9890 ha         1 BDC       0.117500
     60 H2           4.4470     1.4840    -5.2930 ha         1 BDC       0.138500
     61 H3           6.8930     1.5000    -5.5970 ha         1 BDC       0.164000
     62 H9           2.7680    -1.6470    -2.9880 hn         1 BDC       0.425800
     63 HE11         2.1390    -3.7090    -1.3900 h1         1 BDC       0.056950
     64 HE12         3.3830    -2.8810    -0.4580 h1         1 BDC       0.056950
     65 HE31         1.6480    -2.2130     1.2750 hc         1 BDC       0.044200
     66 HE32         0.4500    -3.0960     0.3500 hc         1 BDC       0.044200
     67 HE21         0.8760    -1.5750    -1.6110 hc         1 BDC       0.049700
     68 HE22         2.1120    -0.7430    -0.6780 hc         1 BDC       0.049700
     69 HE41         0.2960    -0.1150     1.0030 hc         1 BDC       0.040700
     70 HE42        -0.9060    -1.0140     0.1030 hc         1 BDC       0.040700
     71 HD1          9.0810    -1.7550    -3.6640 hn         1 BDC       0.363500
     72 HD21        11.3360    -2.0180    -4.3260 h1         1 BDC       0.056450
     73 HD22        11.2370    -0.5630    -5.3060 h1         1 BDC       0.056450
     74 HD31        11.2800     0.8360    -3.2260 h1         1 BDC       0.038450
     75 HD32        11.2390    -0.6310    -2.2530 h1         1 BDC       0.038450
     76 HD71        14.6910    -0.0060    -1.9170 h1         1 BDC       0.029950
     77 HD72        13.1880    -0.4290    -1.0980 h1         1 BDC       0.029950
     78 HD73        13.4170     1.2070    -1.7380 h1         1 BDC       0.029950
     79 HD81        13.3350    -0.0290    -5.2490 h1         1 BDC       0.029950
     80 HD82        14.7600     0.2340    -4.2570 h1         1 BDC       0.029950
     81 HD83        13.4770     1.4520    -4.2900 h1         1 BDC       0.029950
     82 H4'1        -1.3090    -2.4740     2.0950 hc         1 BDC       0.040700
     83 H4'2        -0.1010    -1.5810     2.9940 hc         1 BDC       0.040700
     84 H3'1        -1.4350     0.5060     2.7430 hc         1 BDC       0.044200
     85 H3'2        -2.6500    -0.3610     1.8300 hc         1 BDC       0.044200
     86 H2'1        -1.8870    -1.0390     4.7150 hc         1 BDC       0.049700
     87 H2'2        -3.1350    -1.8240     3.7750 hc         1 BDC       0.049700
     88 H1'1        -4.2240    -0.2540     5.2150 h1         1 BDC       0.056950
     89 H1'2        -4.3440     0.3610     3.5710 h1         1 BDC       0.056950
     90 H17         -2.0720     1.2260     5.1790 hn         1 BDC       0.425800
     91 H11         -8.0250     4.5470     3.2000 ha         1 BDC       0.135000
     92 H12         -7.8120     2.3950     4.4280 ha         1 BDC       0.133500
     93 H13         -5.6260     1.4990     4.9660 ha         1 BDC       0.129000
     94 H14         -0.5240     2.1350     4.6760 ha         1 BDC       0.117500
     95 H15          1.2900     3.6630     4.2480 ha         1 BDC       0.138500
     96 H16          0.8470     5.9260     3.3740 ha         1 BDC       0.164000
     97 H18         -3.3530     6.9230     2.6130 hn         1 BDC       0.363500
     98 H'21        -2.0170     9.1420     1.2260 h1         1 BDC       0.056450
     99 H'22        -3.7450     8.8920     1.3940 h1         1 BDC       0.056450
    100 H'31        -3.7190     9.6620     3.7090 h1         1 BDC       0.038450
    101 H'32        -1.9700     9.8540     3.6920 h1         1 BDC       0.038450
    102 H'71        -1.5640    11.2260     1.1150 h1         1 BDC       0.029950
    103 H'72        -1.0420    11.8870     2.6710 h1         1 BDC       0.029950
    104 H'73        -2.0900    12.8280     1.5960 h1         1 BDC       0.029950
    105 H'81        -3.7580    13.1400     3.2170 h1         1 BDC       0.029950
    106 H'82        -2.8630    12.2500     4.4580 h1         1 BDC       0.029950
    107 H'83        -4.5080    11.7620     4.0210 h1         1 BDC       0.029950
    108 H10         -6.0100     5.8370     2.6160 ha         1 BDC       0.147500
@<TRIPOS>BOND
     1     1     2 ar  
     2     1    10 ar  
     3     1    55 1   
     4     2     3 ar  
     5     2    56 1   
     6     3     4 ar  
     7     3    57 1   
     8     4    11 ar  
     9     4    58 1   
    10     5    11 ar  
    11     5    12 ar  
    12     5    15 1   
    13     6     7 ar  
    14     6    12 ar  
    15     6    59 1   
    16     7     8 ar  
    17     7    60 1   
    18     8     9 ar  
    19     8    61 1   
    20     9    13 ar  
    21     9    16 1   
    22    10    11 ar  
    23    10    14 ar  
    24    12    13 ar  
    25    13    14 ar  
    26    15    18 1   
    27    15    62 1   
    28    16    17 2   
    29    16    22 1   
    30    18    20 1   
    31    18    63 1   
    32    18    64 1   
    33    19    20 1   
    34    19    21 1   
    35    19    65 1   
    36    19    66 1   
    37    20    67 1   
    38    20    68 1   
    39    21    28 1   
    40    21    69 1   
    41    21    70 1   
    42    22    23 1   
    43    22    71 1   
    44    23    24 1   
    45    23    72 1   
    46    23    73 1   
    47    24    25 1   
    48    24    74 1   
    49    24    75 1   
    50    25    26 1   
    51    25    27 1   
    52    26    76 1   
    53    26    77 1   
    54    26    78 1   
    55    27    79 1   
    56    27    80 1   
    57    27    81 1   
    58    28    29 1   
    59    28    82 1   
    60    28    83 1   
    61    29    30 1   
    62    29    84 1   
    63    29    85 1   
    64    30    31 1   
    65    30    86 1   
    66    30    87 1   
    67    31    32 1   
    68    31    88 1   
    69    31    89 1   
    70    32    37 1   
    71    32    90 1   
    72    33    34 ar  
    73    33    42 ar  
    74    33   108 1   
    75    34    35 ar  
    76    34    91 1   
    77    35    36 ar  
    78    35    92 1   
    79    36    43 ar  
    80    36    93 1   
    81    37    43 ar  
    82    37    44 ar  
    83    38    39 ar  
    84    38    44 ar  
    85    38    94 1   
    86    39    40 ar  
    87    39    95 1   
    88    40    41 ar  
    89    40    96 1   
    90    41    45 ar  
    91    41    47 1   
    92    42    43 ar  
    93    42    46 ar  
    94    44    45 ar  
    95    45    46 ar  
    96    47    48 2   
    97    47    49 1   
    98    49    50 1   
    99    49    97 1   
   100    50    51 1   
   101    50    98 1   
   102    50    99 1   
   103    51    52 1   
   104    51   100 1   
   105    51   101 1   
   106    52    53 1   
   107    52    54 1   
   108    53   102 1   
   109    53   103 1   
   110    53   104 1   
   111    54   105 1   
   112    54   106 1   
   113    54   107 1   
@<TRIPOS>SUBSTRUCTURE
     1 BDC         1 TEMP              0 ****  ****    0 ROOT
