@<TRIPOS>MOLECULE
BDC
  108   113     1     0     0
SMALL
No Charge or Current Charge


@<TRIPOS>ATOM
      1 C5           6.4280    -3.3430    -3.8720 ca         1 BDC      -0.116500
      2 C6           5.4640    -4.3640    -3.8560 ca         1 BDC      -0.074000
      3 C7           4.2020    -4.1140    -3.3020 ca         1 BDC      -0.139500
      4 C8           3.9120    -2.8520    -2.7600 ca         1 BDC      -0.069000
      5 C9           4.6490    -0.5480    -2.2280 ca         1 BDC       0.419500
      6 C1           5.4400     1.7350    -1.7660 ca         1 BDC      -0.065000
      7 C2           6.4430     2.7020    -1.8370 ca         1 BDC      -0.142000
      8 C3           7.6680     2.3970    -2.4330 ca         1 BDC      -0.023000
      9 C4           7.9230     1.1140    -2.9700 ca         1 BDC      -0.154600
     10 C14          6.1530    -2.0730    -3.3350 ca         1 BDC       0.351500
     11 C13          4.8920    -1.8270    -2.7630 ca         1 BDC      -0.163000
     12 C11          5.6560     0.4410    -2.2980 ca         1 BDC      -0.182000
     13 C12          6.9010     0.1170    -2.8990 ca         1 BDC       0.371500
     14 N10          7.1080    -1.1270    -3.3910 nb         1 BDC      -0.760500
     15 N9           3.4150    -0.2550    -1.6300 nu         1 BDC      -0.958700
     16 CD1          9.2980     0.9000    -3.5890 c          1 BDC       0.610700
     17 OD1         10.1390     1.7910    -3.6080 o          1 BDC      -0.638100
     18 CE1          3.0450    -0.7150    -0.2840 c3         1 BDC       0.222300
     19 CE3          1.1410    -0.7550     1.4420 c3         1 BDC      -0.075900
     20 CE2          1.6000    -0.2930     0.0420 c3         1 BDC      -0.105400
     21 CE4         -0.3080    -0.3350     1.7710 c3         1 BDC      -0.074900
     22 ND1          9.5910    -0.3230    -4.1400 ns         1 BDC      -0.502400
     23 CD2         10.8730    -0.7120    -4.7380 c3         1 BDC       0.109500
     24 CD3         11.9860    -0.9440    -3.6820 c3         1 BDC       0.139800
     25 ND2         13.2660    -1.4840    -4.2180 n3         1 BDC      -0.716600
     26 CD7         14.1940    -1.8910    -3.1390 c3         1 BDC       0.150850
     27 CD8         13.9230    -0.5890    -5.2020 c3         1 BDC       0.150850
     28 CF4         -0.7670    -0.7950     3.1720 c3         1 BDC      -0.074900
     29 CF3         -2.2130    -0.3670     3.5010 c3         1 BDC      -0.075900
     30 CF2         -2.6650    -0.8030     4.9180 c3         1 BDC      -0.105400
     31 CF1         -4.1150    -0.4090     5.2850 c3         1 BDC       0.222300
     32 N2          -4.2270     1.0080     5.6900 nu         1 BDC      -0.958700
     33 C10         -5.7330     3.7450     1.9550 ca         1 BDC      -0.116500
     34 C15         -6.9140     2.9990     1.8250 ca         1 BDC      -0.074000
     35 C16         -7.1680     1.9460     2.7130 ca         1 BDC      -0.139500
     36 C17         -6.2380     1.6360     3.7170 ca         1 BDC      -0.069000
     37 C18         -4.0660     2.0990     4.8210 ca         1 BDC       0.419500
     38 C19         -1.9360     2.6790     5.9110 ca         1 BDC      -0.065000
     39 C20         -0.8000     3.4840     5.9890 ca         1 BDC      -0.142000
     40 C21         -0.6240     4.5360     5.0880 ca         1 BDC      -0.023000
     41 C22         -1.5820     4.8070     4.0840 ca         1 BDC      -0.154600
     42 CE          -4.7910     3.4490     2.9580 ca         1 BDC       0.351500
     43 CD          -5.0350     2.3770     3.8360 ca         1 BDC      -0.163000
     44 CB          -2.9190     2.9220     4.9220 ca         1 BDC      -0.182000
     45 CC          -2.7490     3.9860     3.9980 ca         1 BDC       0.371500
     46 NA          -3.6850     4.2090     3.0480 nb         1 BDC      -0.760500
     47 CB1         -1.2770     5.9770     3.1570 c          1 BDC       0.610700
     48 O1X         -0.2660     6.6540     3.2910 o          1 BDC      -0.638100
     49 NB1         -2.1630     6.2690     2.1500 ns         1 BDC      -0.502400
     50 CB2         -2.0480     7.3800     1.1980 c3         1 BDC       0.109500
     51 CB3         -2.3550     8.7590     1.8390 c3         1 BDC       0.139800
     52 NB2         -2.3970     9.9050     0.8900 n3         1 BDC      -0.716600
     53 CB7         -1.1130    10.1440     0.1880 c3         1 BDC       0.150850
     54 CB8         -2.9150    11.1360     1.5270 c3         1 BDC       0.150850
     55 H5           7.4030    -3.5370    -4.3110 ha         1 BDC       0.129500
     56 H6           5.6930    -5.3400    -4.2780 ha         1 BDC       0.117000
     57 H7           3.4460    -4.8960    -3.2940 ha         1 BDC       0.115500
     58 H8           2.9200    -2.6810    -2.3500 ha         1 BDC       0.111000
     59 H1           4.5040     2.0090    -1.2870 ha         1 BDC       0.099500
     60 H2           6.2710     3.6950    -1.4260 ha         1 BDC       0.120500
     61 H3           8.4280     3.1760    -2.4720 ha         1 BDC       0.146000
     62 H9           3.1090     0.6950    -1.8340 hn         1 BDC       0.481000
     63 HE11         3.1260    -1.8090    -0.2150 h1         1 BDC       0.056950
     64 HE12         3.7280    -0.2840     0.4620 h1         1 BDC       0.056950
     65 HE31         1.8170    -0.3390     2.1990 hc         1 BDC       0.044200
     66 HE32         1.2230    -1.8480     1.5060 hc         1 BDC       0.044200
     67 HE21         0.9250    -0.7120    -0.7150 hc         1 BDC       0.049700
     68 HE22         1.5190     0.7990    -0.0210 hc         1 BDC       0.049700
     69 HE41        -0.3900     0.7570     1.7070 hc         1 BDC       0.040700
     70 HE42        -0.9860    -0.7530     1.0160 hc         1 BDC       0.040700
     71 HD1          8.8400    -1.0070    -4.0790 hn         1 BDC       0.363500
     72 HD21        10.7210    -1.6390    -5.3060 h1         1 BDC       0.056450
     73 HD22        11.1830     0.0700    -5.4430 h1         1 BDC       0.056450
     74 HD31        12.1740     0.0020    -3.1560 h1         1 BDC       0.038450
     75 HD32        11.5860    -1.6460    -2.9380 h1         1 BDC       0.038450
     76 HD71        15.0950    -2.3600    -3.5570 h1         1 BDC       0.029950
     77 HD72        13.7160    -2.6190    -2.4700 h1         1 BDC       0.029950
     78 HD73        14.5030    -1.0230    -2.5400 h1         1 BDC       0.029950
     79 HD81        13.2780    -0.4120    -6.0710 h1         1 BDC       0.029950
     80 HD82        14.8560    -1.0380    -5.5710 h1         1 BDC       0.029950
     81 HD83        14.1670     0.3810    -4.7470 h1         1 BDC       0.029950
     82 H4'1        -0.6890    -1.8880     3.2390 hc         1 BDC       0.040700
     83 H4'2        -0.0890    -0.3780     3.9270 hc         1 BDC       0.040700
     84 H3'1        -2.2820     0.7210     3.4020 hc         1 BDC       0.044200
     85 H3'2        -2.8960    -0.7970     2.7570 hc         1 BDC       0.044200
     86 H2'1        -1.9720    -0.4120     5.6720 hc         1 BDC       0.049700
     87 H2'2        -2.5940    -1.8960     4.9730 hc         1 BDC       0.049700
     88 H1'1        -4.4340    -1.0400     6.1260 h1         1 BDC       0.056950
     89 H1'2        -4.7790    -0.6380     4.4410 h1         1 BDC       0.056950
     90 H17         -3.8510     1.1980     6.6170 hn         1 BDC       0.481000
     91 H11         -7.6330     3.2430     1.0450 ha         1 BDC       0.117000
     92 H12         -8.0880     1.3710     2.6280 ha         1 BDC       0.115500
     93 H13         -6.4720     0.8290     4.4060 ha         1 BDC       0.111000
     94 H14         -2.0310     1.8680     6.6280 ha         1 BDC       0.099500
     95 H15         -0.0490     3.2910     6.7520 ha         1 BDC       0.120500
     96 H16          0.2740     5.1440     5.1770 ha         1 BDC       0.146000
     97 H18         -2.9770     5.6600     2.1110 hn         1 BDC       0.363500
     98 H'21        -1.0330     7.3790     0.7800 h1         1 BDC       0.056450
     99 H'22        -2.7530     7.2030     0.3760 h1         1 BDC       0.056450
    100 H'31        -3.3290     8.6730     2.3410 h1         1 BDC       0.038450
    101 H'32        -1.6110     8.9550     2.6240 h1         1 BDC       0.038450
    102 H'71        -0.8120     9.2680    -0.4010 h1         1 BDC       0.029950
    103 H'72        -0.3120    10.3710     0.9050 h1         1 BDC       0.029950
    104 H'73        -1.2020    10.9920    -0.5040 h1         1 BDC       0.029950
    105 H'81        -3.0140    11.9440     0.7890 h1         1 BDC       0.029950
    106 H'82        -2.2400    11.4790     2.3230 h1         1 BDC       0.029950
    107 H'83        -3.9050    10.9600     1.9670 h1         1 BDC       0.029950
    108 H10         -5.5430     4.5680     1.2730 ha         1 BDC       0.129500
@<TRIPOS>BOND
     1     1     2 ar  
     2     1    10 ar  
     3     1    55 1   
     4     2     3 ar  
     5     2    56 1   
     6     3     4 ar  
     7     3    57 1   
     8     4    11 ar  
     9     4    58 1   
    10     5    11 ar  
    11     5    12 ar  
    12     5    15 1   
    13     6     7 ar  
    14     6    12 ar  
    15     6    59 1   
    16     7     8 ar  
    17     7    60 1   
    18     8     9 ar  
    19     8    61 1   
    20     9    13 ar  
    21     9    16 1   
    22    10    11 ar  
    23    10    14 ar  
    24    12    13 ar  
    25    13    14 ar  
    26    15    18 1   
    27    15    62 1   
    28    16    17 2   
    29    16    22 1   
    30    18    20 1   
    31    18    63 1   
    32    18    64 1   
    33    19    20 1   
    34    19    21 1   
    35    19    65 1   
    36    19    66 1   
    37    20    67 1   
    38    20    68 1   
    39    21    28 1   
    40    21    69 1   
    41    21    70 1   
    42    22    23 1   
    43    22    71 1   
    44    23    24 1   
    45    23    72 1   
    46    23    73 1   
    47    24    25 1   
    48    24    74 1   
    49    24    75 1   
    50    25    26 1   
    51    25    27 1   
    52    26    76 1   
    53    26    77 1   
    54    26    78 1   
    55    27    79 1   
    56    27    80 1   
    57    27    81 1   
    58    28    29 1   
    59    28    82 1   
    60    28    83 1   
    61    29    30 1   
    62    29    84 1   
    63    29    85 1   
    64    30    31 1   
    65    30    86 1   
    66    30    87 1   
    67    31    32 1   
    68    31    88 1   
    69    31    89 1   
    70    32    37 1   
    71    32    90 1   
    72    33    34 ar  
    73    33    42 ar  
    74    33   108 1   
    75    34    35 ar  
    76    34    91 1   
    77    35    36 ar  
    78    35    92 1   
    79    36    43 ar  
    80    36    93 1   
    81    37    43 ar  
    82    37    44 ar  
    83    38    39 ar  
    84    38    44 ar  
    85    38    94 1   
    86    39    40 ar  
    87    39    95 1   
    88    40    41 ar  
    89    40    96 1   
    90    41    45 ar  
    91    41    47 1   
    92    42    43 ar  
    93    42    46 ar  
    94    44    45 ar  
    95    45    46 ar  
    96    47    48 2   
    97    47    49 1   
    98    49    50 1   
    99    49    97 1   
   100    50    51 1   
   101    50    98 1   
   102    50    99 1   
   103    51    52 1   
   104    51   100 1   
   105    51   101 1   
   106    52    53 1   
   107    52    54 1   
   108    53   102 1   
   109    53   103 1   
   110    53   104 1   
   111    54   105 1   
   112    54   106 1   
   113    54   107 1   
@<TRIPOS>SUBSTRUCTURE
     1 BDC         1 TEMP              0 ****  ****    0 ROOT
