@<TRIPOS>MOLECULE
BDD
   39    38     1     0     0
SMALL
No Charge or Current Charge


@<TRIPOS>ATOM
      1 O1          -0.1580     0.0300    10.2690 oh         1 BDD      -0.662000
      2 C1           0.6450     0.0390     9.0850 c3         1 BDD       0.163600
      3 C2          -0.2640     0.0250     7.8390 c3         1 BDD      -0.081400
      4 C3           0.5310     0.0340     6.5140 c3         1 BDD      -0.075400
      5 C4          -0.3770     0.0200     5.2640 c3         1 BDD      -0.073400
      6 C5           0.4180     0.0280     3.9400 c3         1 BDD      -0.074400
      7 C6          -0.4890     0.0140     2.6900 c3         1 BDD      -0.074400
      8 C7           0.3060     0.0230     1.3660 c3         1 BDD      -0.074400
      9 C8          -0.6020     0.0090     0.1160 c3         1 BDD      -0.074400
     10 C9           0.1930     0.0180    -1.2080 c3         1 BDD      -0.074400
     11 C10         -0.7140     0.0040    -2.4570 c3         1 BDD      -0.078400
     12 C11          0.0810     0.0130    -3.7810 c3         1 BDD      -0.078400
     13 C12         -0.8270    -0.0020    -5.0260 c3         1 BDD       0.095600
     14 Br           0.2430     0.0100    -6.7060 br         1 BDD      -0.280000
     15 HO1          0.4610     0.0400    11.0330 ho         1 BDD       0.442000
     16 H11          1.2780     0.9360     9.0620 h1         1 BDD       0.014700
     17 H12          1.3020    -0.8400     9.0650 h1         1 BDD       0.014700
     18 H21         -0.9030    -0.8660     7.8710 hc         1 BDD       0.052700
     19 H22         -0.9270     0.8980     7.8680 hc         1 BDD       0.052700
     20 H31          1.1710     0.9250     6.4840 hc         1 BDD       0.036700
     21 H32          1.1950    -0.8390     6.4870 hc         1 BDD       0.036700
     22 H41         -1.0170    -0.8710     5.2940 hc         1 BDD       0.039700
     23 H42         -1.0410     0.8920     5.2910 hc         1 BDD       0.039700
     24 H51          1.0580     0.9190     3.9100 hc         1 BDD       0.037700
     25 H52          1.0820    -0.8450     3.9130 hc         1 BDD       0.037700
     26 H61         -1.1290    -0.8760     2.7200 hc         1 BDD       0.037700
     27 H62         -1.1530     0.8870     2.7170 hc         1 BDD       0.037700
     28 H71          0.9460     0.9140     1.3360 hc         1 BDD       0.037700
     29 H72          0.9700    -0.8500     1.3390 hc         1 BDD       0.037700
     30 H81         -1.2420    -0.8820     0.1460 hc         1 BDD       0.037700
     31 H82         -1.2660     0.8820     0.1440 hc         1 BDD       0.037700
     32 H91          0.8340     0.9090    -1.2370 hc         1 BDD       0.039700
     33 H92          0.8570    -0.8550    -1.2350 hc         1 BDD       0.039700
     34 H101        -1.3550    -0.8870    -2.4270 hc         1 BDD       0.039700
     35 H102        -1.3790     0.8770    -2.4300 hc         1 BDD       0.039700
     36 H111         0.7190     0.9040    -3.8160 hc         1 BDD       0.055700
     37 H112         0.7430    -0.8610    -3.8130 hc         1 BDD       0.055700
     38 H121        -1.4480    -0.9070    -5.0490 h1         1 BDD       0.069700
     39 H122        -1.4720     0.8860    -5.0510 h1         1 BDD       0.069700
@<TRIPOS>BOND
     1     1     2 1   
     2     1    15 1   
     3     2     3 1   
     4     2    16 1   
     5     2    17 1   
     6     3     4 1   
     7     3    18 1   
     8     3    19 1   
     9     4     5 1   
    10     4    20 1   
    11     4    21 1   
    12     5     6 1   
    13     5    22 1   
    14     5    23 1   
    15     6     7 1   
    16     6    24 1   
    17     6    25 1   
    18     7     8 1   
    19     7    26 1   
    20     7    27 1   
    21     8     9 1   
    22     8    28 1   
    23     8    29 1   
    24     9    10 1   
    25     9    30 1   
    26     9    31 1   
    27    10    11 1   
    28    10    32 1   
    29    10    33 1   
    30    11    12 1   
    31    11    34 1   
    32    11    35 1   
    33    12    13 1   
    34    12    36 1   
    35    12    37 1   
    36    13    14 1   
    37    13    38 1   
    38    13    39 1   
@<TRIPOS>SUBSTRUCTURE
     1 BDD         1 TEMP              0 ****  ****    0 ROOT
