@<TRIPOS>MOLECULE
BDD
   39    38     1     0     0
SMALL
bcc


@<TRIPOS>ATOM
      1 O1          -0.1520     0.0490    10.1500 oh         1 BDD      -0.599800
      2 C1           0.6350     0.0470     8.9770 c3         1 BDD       0.140400
      3 C2          -0.2750     0.0340     7.7650 c3         1 BDD      -0.081400
      4 C3           0.5120     0.0320     6.4600 c3         1 BDD      -0.075400
      5 C4          -0.3800     0.0170     5.2250 c3         1 BDD      -0.073400
      6 C5           0.4070     0.0170     3.9200 c3         1 BDD      -0.074400
      7 C6          -0.4820     0.0060     2.6820 c3         1 BDD      -0.074400
      8 C7           0.3050     0.0100     1.3780 c3         1 BDD      -0.074400
      9 C8          -0.5840    -0.0030     0.1400 c3         1 BDD      -0.074400
     10 C9           0.2030     0.0160    -1.1640 c3         1 BDD      -0.074400
     11 C10         -0.6930     0.0010    -2.3980 c3         1 BDD      -0.078400
     12 C11          0.1060     0.0240    -3.6990 c3         1 BDD      -0.078400
     13 C12         -0.8270     0.0090    -4.8900 c3         1 BDD       0.013000
     14 BR           0.1640     0.0360    -6.5970 br         1 BDD      -0.197400
     15 HO1          0.4390     0.0540    10.9080 ho         1 BDD       0.403000
     16 H11          1.2840     0.9320     8.9300 h1         1 BDD       0.014700
     17 H12          1.2960    -0.8300     8.9410 h1         1 BDD       0.014700
     18 H21         -0.9210    -0.8490     7.8040 hc         1 BDD       0.052700
     19 H22         -0.9330     0.9090     7.7940 hc         1 BDD       0.052700
     20 H31          1.1630     0.9120     6.4240 hc         1 BDD       0.036700
     21 H32          1.1770    -0.8380     6.4350 hc         1 BDD       0.036700
     22 H41         -1.0300    -0.8640     5.2580 hc         1 BDD       0.039700
     23 H42         -1.0470     0.8860     5.2480 hc         1 BDD       0.039700
     24 H51          1.0590     0.8970     3.8900 hc         1 BDD       0.037700
     25 H52          1.0720    -0.8530     3.8970 hc         1 BDD       0.037700
     26 H61         -1.1330    -0.8750     2.7110 hc         1 BDD       0.037700
     27 H62         -1.1490     0.8760     2.7070 hc         1 BDD       0.037700
     28 H71          0.9550     0.8920     1.3480 hc         1 BDD       0.037700
     29 H72          0.9730    -0.8580     1.3530 hc         1 BDD       0.037700
     30 H81         -1.2260    -0.8910     0.1640 hc         1 BDD       0.037700
     31 H82         -1.2590     0.8600     0.1700 hc         1 BDD       0.037700
     32 H91          0.8420     0.9050    -1.1910 hc         1 BDD       0.039700
     33 H92          0.8780    -0.8460    -1.1960 hc         1 BDD       0.039700
     34 H101        -1.3300    -0.8890    -2.3730 hc         1 BDD       0.039700
     35 H102        -1.3680     0.8630    -2.3670 hc         1 BDD       0.039700
     36 H111         0.7350     0.9170    -3.7270 hc         1 BDD       0.055700
     37 H112         0.7740    -0.8410    -3.7350 hc         1 BDD       0.055700
     38 H121        -1.4420    -0.8900    -4.9120 h1         1 BDD       0.069700
     39 H122        -1.4780     0.8820    -4.9050 h1         1 BDD       0.069700
@<TRIPOS>BOND
     1     1     2 1   
     2     1    15 1   
     3     2     3 1   
     4     2    16 1   
     5     2    17 1   
     6     3     4 1   
     7     3    18 1   
     8     3    19 1   
     9     4     5 1   
    10     4    20 1   
    11     4    21 1   
    12     5     6 1   
    13     5    22 1   
    14     5    23 1   
    15     6     7 1   
    16     6    24 1   
    17     6    25 1   
    18     7     8 1   
    19     7    26 1   
    20     7    27 1   
    21     8     9 1   
    22     8    28 1   
    23     8    29 1   
    24     9    10 1   
    25     9    30 1   
    26     9    31 1   
    27    10    11 1   
    28    10    32 1   
    29    10    33 1   
    30    11    12 1   
    31    11    34 1   
    32    11    35 1   
    33    12    13 1   
    34    12    36 1   
    35    12    37 1   
    36    13    14 1   
    37    13    38 1   
    38    13    39 1   
@<TRIPOS>SUBSTRUCTURE
     1 BDD         1 TEMP              0 ****  ****    0 ROOT
