@<TRIPOS>MOLECULE
BDE
   30    31     1     0     0
SMALL
No Charge or Current Charge


@<TRIPOS>ATOM
      1 CAE         -6.4930    -0.2360    -1.0780 ca         1 BDE      -0.018000
      2 CAF         -7.8330     0.1540    -0.9330 ca         1 BDE      -0.169000
      3 CAA         -8.1940     0.9760     0.1440 ca         1 BDE       0.359900
      4 NAB         -7.3010     1.4140     1.0600 nb         1 BDE      -0.668000
      5 CAC         -6.0090     1.0380     0.9200 ca         1 BDE       0.361900
      6 CAD         -5.5500     0.2150    -0.1280 ca         1 BDE      -0.214600
      7 CAG         -4.1020    -0.1800    -0.2480 c          1 BDE       0.639700
      8 OAU         -3.7130    -0.8960    -1.1640 o          1 BDE      -0.541100
      9 NAH         -3.2250     0.3070     0.7250 ns         1 BDE      -0.267900
     10 NAI         -1.8650     0.0220     0.7580 n2         1 BDE      -0.496300
     11 CAJ         -1.0440     0.7360     0.0470 ce         1 BDE       0.431800
     12 CAK          0.4220     0.4440    -0.0030 ca         1 BDE      -0.301900
     13 CAL          1.2280     1.2980    -0.7820 ca         1 BDE       0.032000
     14 CAM          2.6120     1.0870    -0.8740 ca         1 BDE      -0.123900
     15 BrAT         3.6640     2.2810    -1.9500 br         1 BDE      -0.066100
     16 CAN          3.2090     0.0170    -0.1870 ca         1 BDE       0.260100
     17 OAS          4.5540    -0.1900    -0.2760 oh         1 BDE      -0.501100
     18 CAO          2.4200    -0.8430     0.5940 ca         1 BDE      -0.202900
     19 BrAR         3.2400    -2.3130     1.5370 br         1 BDE      -0.066100
     20 CAP          1.0310    -0.6300     0.6860 ca         1 BDE       0.283100
     21 OAQ          0.2840    -1.4750     1.4450 oh         1 BDE      -0.513100
     22 HAE         -6.1980    -0.8740    -1.9100 ha         1 BDE       0.144000
     23 HAF         -8.5870    -0.1740    -1.6430 ha         1 BDE       0.133000
     24 HAA         -9.2280     1.2930     0.2800 h4         1 BDE       0.026100
     25 HAC         -5.3340     1.4190     1.6830 h4         1 BDE       0.017100
     26 HAH         -3.6410     0.8940     1.4430 hn         1 BDE       0.316500
     27 HAJ         -1.4000     1.5820    -0.5460 h4         1 BDE      -0.005200
     28 HAL          0.7820     2.1330    -1.3210 ha         1 BDE       0.129000
     29 HAS          4.7630    -0.9760     0.2700 ho         1 BDE       0.491000
     30 HAQ         -0.6450    -1.1460     1.3730 ho         1 BDE       0.531000
@<TRIPOS>BOND
     1     1     2 ar  
     2     1     6 ar  
     3     1    22 1   
     4     2     3 ar  
     5     2    23 1   
     6     3     4 ar  
     7     3    24 1   
     8     4     5 ar  
     9     5     6 ar  
    10     5    25 1   
    11     6     7 1   
    12     7     8 2   
    13     7     9 1   
    14     9    10 1   
    15     9    26 1   
    16    10    11 2   
    17    11    12 1   
    18    11    27 1   
    19    12    13 ar  
    20    12    20 ar  
    21    13    14 ar  
    22    13    28 1   
    23    14    15 1   
    24    14    16 ar  
    25    16    17 1   
    26    16    18 ar  
    27    17    29 1   
    28    18    19 1   
    29    18    20 ar  
    30    20    21 1   
    31    21    30 1   
@<TRIPOS>SUBSTRUCTURE
     1 BDE         1 TEMP              0 ****  ****    0 ROOT
