@<TRIPOS>MOLECULE
BDE
   30    31     1     0     0
SMALL
bcc


@<TRIPOS>ATOM
      1 CAE         -6.5510    -0.7360    -0.4190 ca         1 BDE      -0.036000
      2 CAF         -7.8500    -0.2640    -0.4060 ca         1 BDE      -0.252300
      3 CAA         -8.0840     1.0150     0.0820 ca         1 BDE       0.425200
      4 NAB         -7.1230     1.8060     0.5420 nb         1 BDE      -0.668000
      5 CAC         -5.8790     1.3520     0.5190 ca         1 BDE       0.427200
      6 CAD         -5.5300     0.0920     0.0380 ca         1 BDE      -0.279900
      7 CAG         -4.1350    -0.4260     0.0420 c          1 BDE       0.706700
      8 OAU         -3.8870    -1.6130     0.1080 o          1 BDE      -0.541100
      9 NAH         -3.1680     0.5260    -0.0390 ns         1 BDE      -0.334900
     10 NAI         -1.8790     0.1580     0.0130 n2         1 BDE      -0.496300
     11 CAJ         -0.9660     1.0390    -0.1130 ce         1 BDE       0.431800
     12 CAK          0.4300     0.6510    -0.0540 ca         1 BDE      -0.301900
     13 CAL          1.4120     1.6310    -0.1820 ca         1 BDE       0.014000
     14 CAM          2.7500     1.3140    -0.1320 ca         1 BDE      -0.123900
     15 BRAT         4.0510     2.6600    -0.3040 br         1 BDE      -0.066100
     16 CAN          3.1640    -0.0130     0.0510 ca         1 BDE       0.260100
     17 OAS          4.4690    -0.2510     0.0940 oh         1 BDE      -0.462100
     18 CAO          2.1800    -0.9960     0.1760 ca         1 BDE      -0.202900
     19 BRAR         2.6790    -2.7920     0.4200 br         1 BDE      -0.066100
     20 CAP          0.8190    -0.6910     0.1280 ca         1 BDE       0.283100
     21 OAQ         -0.0530    -1.6780     0.2520 oh         1 BDE      -0.474100
     22 HAE         -6.3280    -1.7290    -0.7870 ha         1 BDE       0.162000
     23 HAF         -8.6700    -0.8710    -0.7600 ha         1 BDE       0.151000
     24 HAA         -9.0920     1.4130     0.1050 h4         1 BDE       0.026100
     25 HAC         -5.1280     2.0210     0.9280 h4         1 BDE       0.017100
     26 HAH         -3.3990     1.4970    -0.2140 hn         1 BDE       0.316500
     27 HAJ         -1.1890     2.0950    -0.2670 h4         1 BDE      -0.005200
     28 HAL          1.1050     2.6600    -0.3240 ha         1 BDE       0.147000
     29 HAS          4.6700    -1.1880     0.2220 ho         1 BDE       0.452000
     30 HAQ         -0.9680    -1.3050     0.2030 ho         1 BDE       0.492000
@<TRIPOS>BOND
     1     1     2 ar  
     2     1     6 ar  
     3     1    22 1   
     4     2     3 ar  
     5     2    23 1   
     6     3     4 ar  
     7     3    24 1   
     8     4     5 ar  
     9     5     6 ar  
    10     5    25 1   
    11     6     7 1   
    12     7     8 2   
    13     7     9 1   
    14     9    10 1   
    15     9    26 1   
    16    10    11 2   
    17    11    12 1   
    18    11    27 1   
    19    12    13 ar  
    20    12    20 ar  
    21    13    14 ar  
    22    13    28 1   
    23    14    15 1   
    24    14    16 ar  
    25    16    17 1   
    26    16    18 ar  
    27    17    29 1   
    28    18    19 1   
    29    18    20 ar  
    30    20    21 1   
    31    21    30 1   
@<TRIPOS>SUBSTRUCTURE
     1 BDE         1 TEMP              0 ****  ****    0 ROOT
