@<TRIPOS>MOLECULE
BDF
   24    24     1     0     0
SMALL
bcc


@<TRIPOS>ATOM
      1 C1           0.3360     0.8570     2.1630 c3         1 BDF       0.118400
      2 C2           0.0630    -0.0700     0.9800 c6         1 BDF       0.343600
      3 C3           0.9140     0.3270    -0.2350 c6         1 BDF       0.144100
      4 C4           0.4710    -0.4420    -1.4780 c6         1 BDF       0.122100
      5 C5          -1.0250    -0.2640    -1.7140 c6         1 BDF       0.083100
      6 C6          -1.7550    -0.6590    -0.4400 c6         1 BDF       0.103400
      7 O1          -0.3420     0.3530     3.2940 oh         1 BDF      -0.598800
      8 O2           0.3650    -1.3870     1.3080 oh         1 BDF      -0.601800
      9 O3           2.2640     0.0840     0.0680 oh         1 BDF      -0.588800
     10 O4           1.2590     0.0210    -2.5490 oh         1 BDF      -0.590800
     11 O5          -1.2610     1.0760    -2.0760 oh         1 BDF      -0.575800
     12 O6          -1.3020     0.0880     0.6710 os         1 BDF      -0.411600
     13 H11         -0.0010     1.8700     1.9140 h1         1 BDF       0.054200
     14 H12          1.4150     0.9030     2.3300 h1         1 BDF       0.054200
     15 H3           0.7400     1.3990    -0.4100 h1         1 BDF       0.068700
     16 H4           0.6460    -1.5120    -1.3020 h1         1 BDF       0.059700
     17 H5          -1.3450    -0.9530    -2.5110 h1         1 BDF       0.032700
     18 H61         -1.6450    -1.7370    -0.2750 h1         1 BDF       0.056700
     19 H62         -2.8250    -0.4570    -0.5320 h1         1 BDF       0.056700
     20 HO1          0.2170     0.4740     4.0650 ho         1 BDF       0.409000
     21 HO2          0.0330    -1.5520     2.2010 ho         1 BDF       0.428000
     22 HO3          2.7910     0.3960    -0.6740 ho         1 BDF       0.422000
     23 HO4          1.1630    -0.5880    -3.2880 ho         1 BDF       0.409000
     24 HO5         -2.2080     1.1920    -2.2010 ho         1 BDF       0.403000
@<TRIPOS>BOND
     1     1     2 1   
     2     1     7 1   
     3     1    13 1   
     4     1    14 1   
     5     2     3 1   
     6     2     8 1   
     7     2    12 1   
     8     3     4 1   
     9     3     9 1   
    10     3    15 1   
    11     4     5 1   
    12     4    10 1   
    13     4    16 1   
    14     5     6 1   
    15     5    11 1   
    16     5    17 1   
    17     6    12 1   
    18     6    18 1   
    19     6    19 1   
    20     7    20 1   
    21     8    21 1   
    22     9    22 1   
    23    10    23 1   
    24    11    24 1   
@<TRIPOS>SUBSTRUCTURE
     1 BDF         1 TEMP              0 ****  ****    0 ROOT
