@<TRIPOS>MOLECULE
BDF
   24    24     1     0     0
SMALL
No Charge or Current Charge


@<TRIPOS>ATOM
      1 C1           0.4000     0.7920     2.2400 c3         1 BDF       0.141600
      2 C2           0.1050    -0.1140     0.9910 c6         1 BDF       0.390000
      3 C3           0.9960     0.2760    -0.2530 c6         1 BDF       0.167300
      4 C4           0.5590    -0.5440    -1.5080 c6         1 BDF       0.145300
      5 C5          -0.9680    -0.3780    -1.7660 c6         1 BDF       0.106300
      6 C6          -1.7470    -0.7540    -0.4670 c6         1 BDF       0.126600
      7 O1          -0.3290     0.3640     3.4210 oh         1 BDF      -0.721000
      8 O2           0.2830    -1.4640     1.4200 oh         1 BDF      -0.724000
      9 O3           2.4200     0.1180    -0.0330 oh         1 BDF      -0.711000
     10 O4           1.2850    -0.1010    -2.6700 oh         1 BDF      -0.713000
     11 O5          -1.2360     0.9790    -2.1850 oh         1 BDF      -0.698000
     12 O6          -1.2950     0.0370     0.6630 os         1 BDF      -0.458000
     13 H11          0.1330     1.8250     1.9770 h1         1 BDF       0.054200
     14 H12          1.4810     0.7780     2.4340 h1         1 BDF       0.054200
     15 H3           0.7870     1.3360    -0.4650 h1         1 BDF       0.068700
     16 H4           0.7640    -1.6090    -1.3180 h1         1 BDF       0.059700
     17 H5          -1.2700    -1.0780    -2.5600 h1         1 BDF       0.032700
     18 H61         -1.6170    -1.8240    -0.2490 h1         1 BDF       0.056700
     19 H62         -2.8220    -0.5820    -0.6140 h1         1 BDF       0.056700
     20 HO1         -0.2110     1.0650     4.1060 ho         1 BDF       0.508000
     21 HO2         -0.0300    -1.4050     2.3540 ho         1 BDF       0.527000
     22 HO3          2.8000     0.0230    -0.9400 ho         1 BDF       0.521000
     23 HO4          0.6940     0.5870    -3.0640 ho         1 BDF       0.508000
     24 HO5         -2.2150     1.0920    -2.2070 ho         1 BDF       0.502000
@<TRIPOS>BOND
     1     1     2 1   
     2     1     7 1   
     3     1    13 1   
     4     1    14 1   
     5     2     3 1   
     6     2     8 1   
     7     2    12 1   
     8     3     4 1   
     9     3     9 1   
    10     3    15 1   
    11     4     5 1   
    12     4    10 1   
    13     4    16 1   
    14     5     6 1   
    15     5    11 1   
    16     5    17 1   
    17     6    12 1   
    18     6    18 1   
    19     6    19 1   
    20     7    20 1   
    21     8    21 1   
    22     9    22 1   
    23    10    23 1   
    24    11    24 1   
@<TRIPOS>SUBSTRUCTURE
     1 BDF         1 TEMP              0 ****  ****    0 ROOT
