@<TRIPOS>MOLECULE
BDG
   26    26     1     0     0
SMALL
abcg2


@<TRIPOS>ATOM
      1 C5           7.4500     3.0400     3.1320 c6         1 BDG       0.175300
      2 O5           8.5600     2.1620     2.9940 os         1 BDG      -0.450000
      3 C1           8.2750     0.8050     2.9180 c6         1 BDG       0.413300
      4 O1           7.6040     0.5600     1.7110 oh         1 BDG      -0.685000
      5 C2           7.4610     0.3230     4.1270 c6         1 BDG       0.066500
      6 N2           7.1540    -1.0870     3.9580 n8         1 BDG      -1.001200
      7 C3           6.2480     1.2270     4.3470 c6         1 BDG       0.090300
      8 O3           5.5040     0.8690     5.4920 oh         1 BDG      -0.659000
      9 C4           6.6830     2.6880     4.4020 c6         1 BDG       0.116300
     10 O4           5.5810     3.5550     4.5090 oh         1 BDG      -0.707000
     11 C6           8.0100     4.4500     3.1460 c3         1 BDG       0.162800
     12 N6           8.6600     4.7620     1.8830 n8         1 BDG      -0.993200
     13 H5           6.7750     2.9460     2.2700 h1         1 BDG       0.085700
     14 H1           9.2460     0.2950     2.9280 h2         1 BDG       0.073700
     15 HO1          7.5900    -0.3920     1.5620 ho         1 BDG       0.468000
     16 H2           8.1210     0.4160     4.9980 h1         1 BDG       0.064700
     17 HN21         6.3200    -1.1980     3.3940 hn         1 BDG       0.407000
     18 HN22         6.9380    -1.5050     4.8530 hn         1 BDG       0.407000
     19 H3           5.5590     1.1050     3.5030 h1         1 BDG       0.099700
     20 HO3          6.0910     0.8810     6.2570 ho         1 BDG       0.440000
     21 H4           7.3660     2.8110     5.2610 h1         1 BDG       0.032700
     22 HO4          5.0300     3.2360     5.2320 ho         1 BDG       0.516000
     23 H61          8.6610     4.5630     4.0260 h1         1 BDG       0.040200
     24 H62          7.1790     5.1430     3.2810 h1         1 BDG       0.040200
     25 HN61         9.5250     4.2420     1.8090 hn         1 BDG       0.398000
     26 HN62         8.9240     5.7380     1.8750 hn         1 BDG       0.398000
@<TRIPOS>BOND
     1     1     2 1   
     2     1     9 1   
     3     1    11 1   
     4     1    13 1   
     5     2     3 1   
     6     3     4 1   
     7     3     5 1   
     8     3    14 1   
     9     4    15 1   
    10     5     6 1   
    11     5     7 1   
    12     5    16 1   
    13     6    17 1   
    14     6    18 1   
    15     7     8 1   
    16     7     9 1   
    17     7    19 1   
    18     8    20 1   
    19     9    10 1   
    20     9    21 1   
    21    10    22 1   
    22    11    12 1   
    23    11    23 1   
    24    11    24 1   
    25    12    25 1   
    26    12    26 1   
@<TRIPOS>SUBSTRUCTURE
     1 BDG         1 TEMP              0 ****  ****    0 ROOT
