@<TRIPOS>MOLECULE
BDG
   26    26     1     0     0
SMALL
No Charge or Current Charge


@<TRIPOS>ATOM
      1 C5           7.4710     3.0750     3.0650 c6         1 BDG       0.175300
      2 O5           8.6320     2.2020     3.0110 os         1 BDG      -0.450000
      3 C1           8.3550     0.7890     2.9340 c6         1 BDG       0.413300
      4 O1           7.7060     0.4970     1.7060 oh         1 BDG      -0.685000
      5 C2           7.4300     0.3020     4.1050 c6         1 BDG       0.066500
      6 N2           6.9520    -1.1040     3.8780 n8         1 BDG      -1.001200
      7 C3           6.1910     1.2430     4.2650 c6         1 BDG       0.090300
      8 O3           5.4150     0.8910     5.4320 oh         1 BDG      -0.659000
      9 C4           6.6230     2.7340     4.3310 c6         1 BDG       0.116300
     10 O4           5.4500     3.5580     4.4400 oh         1 BDG      -0.707000
     11 C6           7.9920     4.5510     3.0770 c3         1 BDG       0.162800
     12 N6           8.8430     4.9230     1.9150 n8         1 BDG      -0.993200
     13 H5           6.8620     2.9320     2.1610 h1         1 BDG       0.085700
     14 H1           9.3050     0.2340     2.9830 h2         1 BDG       0.073700
     15 HO1          7.2110    -0.3210     1.9520 ho         1 BDG       0.468000
     16 H2           8.0100     0.3220     5.0410 h1         1 BDG       0.064700
     17 HN21         6.1140    -1.2520     4.4580 hn         1 BDG       0.407000
     18 HN22         7.6310    -1.7670     4.2780 hn         1 BDG       0.407000
     19 H3           5.5690     1.1270     3.3630 h1         1 BDG       0.099700
     20 HO3          6.0450     0.7760     6.1790 ho         1 BDG       0.440000
     21 H4           7.2570     2.8760     5.2190 h1         1 BDG       0.032700
     22 HO4          4.8210     3.0320     4.9920 ho         1 BDG       0.516000
     23 H61          8.5770     4.6990     3.9960 h1         1 BDG       0.040200
     24 H62          7.1330     5.2360     3.1120 h1         1 BDG       0.040200
     25 HN61         9.6230     4.2560     1.8690 hn         1 BDG       0.398000
     26 HN62         9.3000     5.8230     2.1080 hn         1 BDG       0.398000
@<TRIPOS>BOND
     1     1     2 1   
     2     1     9 1   
     3     1    11 1   
     4     1    13 1   
     5     2     3 1   
     6     3     4 1   
     7     3     5 1   
     8     3    14 1   
     9     4    15 1   
    10     5     6 1   
    11     5     7 1   
    12     5    16 1   
    13     6    17 1   
    14     6    18 1   
    15     7     8 1   
    16     7     9 1   
    17     7    19 1   
    18     8    20 1   
    19     9    10 1   
    20     9    21 1   
    21    10    22 1   
    22    11    12 1   
    23    11    23 1   
    24    11    24 1   
    25    12    25 1   
    26    12    26 1   
@<TRIPOS>SUBSTRUCTURE
     1 BDG         1 TEMP              0 ****  ****    0 ROOT
