@<TRIPOS>MOLECULE
BDH
   31    31     1     0     0
SMALL
abcg2


@<TRIPOS>ATOM
      1 O1          -0.4740     0.1440     4.7610 o          1 BDH      -0.744000
      2 O2           1.4770    -0.8800     4.4310 o          1 BDH      -0.744000
      3 O3          -0.3480     1.5540     0.1880 o          1 BDH      -0.640100
      4 O4          -3.1960    -0.4470    -3.3810 o          1 BDH      -0.732500
      5 O5          -3.2010    -1.6810    -1.5200 o          1 BDH      -0.732500
      6 N1           1.9430     0.4340     2.1290 n8         1 BDH      -0.995200
      7 N2          -1.0650    -0.4760    -0.5040 ns         1 BDH      -0.492900
      8 C1           0.5980     0.4830     2.6730 c3         1 BDH       0.036500
      9 C2          -0.4640    -0.2140     1.8130 c3         1 BDH      -0.183400
     10 C3          -0.6100     0.3810     0.4260 c          1 BDH       0.578100
     11 C4           0.5400    -0.1340     4.0890 c          1 BDH       0.722000
     12 C5          -1.4270    -0.1090    -1.8500 c3         1 BDH      -0.037300
     13 C7          -2.7390    -0.8100    -2.2820 c          1 BDH       0.713000
     14 CB          -0.3150    -0.4650    -2.8570 c3         1 BDH      -0.008100
     15 CG           1.0200     0.0790    -2.4970 cc         1 BDH      -0.150300
     16 ND1          1.8410    -0.4840    -1.5610 na         1 BDH      -0.289500
     17 CD2          1.7060     1.1810    -2.9300 cd         1 BDH       0.198900
     18 CE1          2.9500     0.2780    -1.4620 cc         1 BDH       0.365400
     19 NE2          2.9030     1.2970    -2.2800 nd         1 BDH      -0.699000
     20 HN11         2.2770    -0.5210     2.1460 hn         1 BDH       0.377500
     21 HN12         1.9380     0.7360     1.1630 hn         1 BDH       0.377500
     22 HN2         -1.3880    -1.3840    -0.2060 hn         1 BDH       0.321500
     23 H1           0.3130     1.5360     2.7620 h1         1 BDH       0.062700
     24 H21         -1.4380    -0.1410     2.3060 hc         1 BDH       0.057200
     25 H22         -0.2370    -1.2830     1.7380 hc         1 BDH       0.057200
     26 H5          -1.5750     0.9720    -1.8830 h1         1 BDH       0.068700
     27 HB1         -0.6000    -0.0760    -3.8340 hc         1 BDH       0.049700
     28 HB2         -0.2560    -1.5540    -2.9560 hc         1 BDH       0.049700
     29 HD1          1.6500    -1.3240    -1.0370 hn         1 BDH       0.351000
     30 HD2          1.3890     1.8940    -3.6770 h4         1 BDH       0.020100
     31 HE1          3.7620     0.0330    -0.7930 h5         1 BDH       0.041100
@<TRIPOS>BOND
     1     1    11 1   
     2     2    11 1   
     3     3    10 2   
     4     4    13 1   
     5     5    13 1   
     6     6     8 1   
     7     6    20 1   
     8     6    21 1   
     9     7    10 1   
    10     7    12 1   
    11     7    22 1   
    12     8     9 1   
    13     8    11 1   
    14     8    23 1   
    15     9    10 1   
    16     9    24 1   
    17     9    25 1   
    18    12    13 1   
    19    12    14 1   
    20    12    26 1   
    21    14    15 1   
    22    14    27 1   
    23    14    28 1   
    24    15    16 1   
    25    15    17 2   
    26    16    18 1   
    27    16    29 1   
    28    17    19 1   
    29    17    30 1   
    30    18    19 2   
    31    18    31 1   
@<TRIPOS>SUBSTRUCTURE
     1 BDH         1 TEMP              0 ****  ****    0 ROOT
