@<TRIPOS>MOLECULE
BDH
   31    31     1     0     0
SMALL
No Charge or Current Charge


@<TRIPOS>ATOM
      1 O1           1.1540     1.2800     4.5590 o          1 BDH      -0.744000
      2 O2           0.2990    -0.6910     4.6890 o          1 BDH      -0.744000
      3 O3          -0.8880     1.7260     0.1820 o          1 BDH      -0.640100
      4 O4          -3.4080    -0.4830    -3.0710 o          1 BDH      -0.732500
      5 O5          -2.6000    -2.2660    -2.1760 o          1 BDH      -0.732500
      6 N1           1.5270    -0.8800     1.8270 n8         1 BDH      -0.995200
      7 N2          -1.1710    -0.4510    -0.4460 ns         1 BDH      -0.492900
      8 C1           0.6630     0.1840     2.4530 c3         1 BDH       0.036500
      9 C2          -0.7890     0.0520     1.9250 c3         1 BDH      -0.183400
     10 C3          -0.9310     0.5410     0.4800 c          1 BDH       0.578100
     11 C4           0.6920     0.2720     4.0390 c          1 BDH       0.722000
     12 C5          -1.3280    -0.2480    -1.9100 c3         1 BDH      -0.037300
     13 C7          -2.5330    -1.0750    -2.4540 c          1 BDH       0.713000
     14 CB          -0.0300    -0.5880    -2.6840 c3         1 BDH      -0.008100
     15 CG           1.1610     0.2480    -2.2900 cc         1 BDH      -0.150300
     16 ND1          2.3600    -0.2490    -1.8250 na         1 BDH      -0.289500
     17 CD2          1.3290     1.6100    -2.3240 cd         1 BDH       0.198900
     18 CE1          3.1980     0.8140    -1.5910 cc         1 BDH       0.365400
     19 NE2          2.5970     1.9550    -1.8960 nd         1 BDH      -0.699000
     20 HN11         1.2260    -1.7990     2.1740 hn         1 BDH       0.377500
     21 HN12         1.3490    -0.9160     0.8170 hn         1 BDH       0.377500
     22 HN2         -1.2450    -1.3970    -0.0890 hn         1 BDH       0.321500
     23 H1           1.0460     1.1540     2.1050 h1         1 BDH       0.062700
     24 H21         -1.4300     0.6860     2.5490 hc         1 BDH       0.057200
     25 H22         -1.1150    -0.9910     2.0180 hc         1 BDH       0.057200
     26 H5          -1.5660     0.8070    -2.0930 h1         1 BDH       0.068700
     27 HB1         -0.2190    -0.4520    -3.7570 hc         1 BDH       0.049700
     28 HB2          0.1990    -1.6520    -2.5480 hc         1 BDH       0.049700
     29 HD1          2.6040    -1.2220    -1.6860 hn         1 BDH       0.351000
     30 HD2          0.6130     2.3590    -2.6410 h4         1 BDH       0.020100
     31 HE1          4.2090     0.6910    -1.2200 h5         1 BDH       0.041100
@<TRIPOS>BOND
     1     1    11 1   
     2     2    11 1   
     3     3    10 2   
     4     4    13 1   
     5     5    13 1   
     6     6     8 1   
     7     6    20 1   
     8     6    21 1   
     9     7    10 1   
    10     7    12 1   
    11     7    22 1   
    12     8     9 1   
    13     8    11 1   
    14     8    23 1   
    15     9    10 1   
    16     9    24 1   
    17     9    25 1   
    18    12    13 1   
    19    12    14 1   
    20    12    26 1   
    21    14    15 1   
    22    14    27 1   
    23    14    28 1   
    24    15    16 1   
    25    15    17 2   
    26    16    18 1   
    27    16    29 1   
    28    17    19 1   
    29    17    30 1   
    30    18    19 2   
    31    18    31 1   
@<TRIPOS>SUBSTRUCTURE
     1 BDH         1 TEMP              0 ****  ****    0 ROOT
