@<TRIPOS>MOLECULE
BDI
   27    28     1     0     0
SMALL
No Charge or Current Charge


@<TRIPOS>ATOM
      1 N1          15.5730    16.3570    20.4750 nc         1 BDI      -0.614000
      2 C1          16.5180    16.9760    19.7820 cd         1 BDI       0.429800
      3 C6          16.6300    16.9100    18.2830 c3         1 BDI      -0.114700
      4 C7          16.0090    18.1380    17.5780 c3         1 BDI      -0.077400
      5 C8          16.1200    18.0730    16.0390 c3         1 BDI      -0.075400
      6 C9          15.5000    19.2970    15.3380 c3         1 BDI      -0.089100
      7 N2          17.3630    17.6870    20.6120 na         1 BDI      -0.257500
      8 C2          16.9080    17.4910    21.9110 cd         1 BDI      -0.236600
      9 C4          17.4140    18.0020    23.2040 c          1 BDI       0.609600
     10 N5          16.6740    17.5750    24.2940 ns         1 BDI      -0.354500
     11 N4          15.5230    16.7190    24.2000 ns         1 BDI      -0.377500
     12 C5          15.0290    16.2270    22.9980 c          1 BDI       0.505500
     13 O1          14.0430    15.5010    22.9730 o          1 BDI      -0.517000
     14 C3          15.8130    16.6740    21.7950 cc         1 BDI       0.232500
     15 O3          18.3880    18.7300    23.3170 o          1 BDI      -0.556000
     16 HC61        17.6860    16.8250    18.0010 hc         1 BDI       0.071200
     17 HC62        16.1390    15.9990    17.9190 hc         1 BDI       0.071200
     18 HC71        14.9510    18.2160    17.8610 hc         1 BDI       0.045200
     19 HC72        16.5030    19.0490    17.9380 hc         1 BDI       0.045200
     20 HC81        17.1770    17.9960    15.7540 hc         1 BDI       0.040700
     21 HC82        15.6230    17.1650    15.6760 hc         1 BDI       0.040700
     22 HC91        15.6030    19.2070    14.2500 hc         1 BDI       0.035033
     23 HC92        14.4330    19.3820    15.5760 hc         1 BDI       0.035033
     24 HC93        16.0010    20.2210    15.6540 hc         1 BDI       0.035033
     25 HN2         18.1570    18.2400    20.3130 hn         1 BDI       0.375000
     26 HN5         16.9650    17.8890    25.2180 hn         1 BDI       0.350500
     27 HN4         15.0460    16.4610    25.0620 hn         1 BDI       0.347500
@<TRIPOS>BOND
     1     1     2 2   
     2     1    14 1   
     3     2     3 1   
     4     2     7 1   
     5     3     4 1   
     6     3    16 1   
     7     3    17 1   
     8     4     5 1   
     9     4    18 1   
    10     4    19 1   
    11     5     6 1   
    12     5    20 1   
    13     5    21 1   
    14     6    22 1   
    15     6    23 1   
    16     6    24 1   
    17     7     8 1   
    18     7    25 1   
    19     8     9 1   
    20     8    14 2   
    21     9    10 1   
    22     9    15 2   
    23    10    11 1   
    24    10    26 1   
    25    11    12 1   
    26    11    27 1   
    27    12    13 2   
    28    12    14 1   
@<TRIPOS>SUBSTRUCTURE
     1 BDI         1 TEMP              0 ****  ****    0 ROOT
