@<TRIPOS>MOLECULE
BDI
   27    28     1     0     0
SMALL
abcg2


@<TRIPOS>ATOM
      1 N1          15.5660    16.1770    20.5160 nc         1 BDI      -0.614000
      2 C1          16.4070    16.8850    19.7750 cd         1 BDI       0.429800
      3 C6          16.5140    16.8440    18.2930 c3         1 BDI      -0.114700
      4 C7          16.0340    18.1390    17.6200 c3         1 BDI      -0.077400
      5 C8          16.1230    18.0680    16.0980 c3         1 BDI      -0.075400
      6 C9          15.6630    19.3570    15.4210 c3         1 BDI      -0.089100
      7 N2          17.1720    17.7090    20.5520 na         1 BDI      -0.257500
      8 C2          16.8010    17.5150    21.8490 cd         1 BDI      -0.236600
      9 C4          17.2980    18.1380    23.0540 c          1 BDI       0.609600
     10 N5          16.6520    17.6620    24.1540 ns         1 BDI      -0.354500
     11 N4          15.6580    16.6990    24.1370 ns         1 BDI      -0.377500
     12 C5          15.1580    16.0900    23.0210 c          1 BDI       0.505500
     13 O1          14.2650    15.2450    23.0980 o          1 BDI      -0.517000
     14 C3          15.8050    16.5620    21.8080 cc         1 BDI       0.232500
     15 O3          18.1850    18.9930    23.1260 o          1 BDI      -0.556000
     16 HC61        17.5550    16.6550    18.0130 hc         1 BDI       0.071200
     17 HC62        15.9210    15.9980    17.9430 hc         1 BDI       0.071200
     18 HC71        15.0000    18.3370    17.9210 hc         1 BDI       0.045200
     19 HC72        16.6340    18.9800    17.9810 hc         1 BDI       0.045200
     20 HC81        17.1560    17.8490    15.8090 hc         1 BDI       0.040700
     21 HC82        15.5170    17.2280    15.7420 hc         1 BDI       0.040700
     22 HC91        15.7370    19.2820    14.3340 hc         1 BDI       0.035033
     23 HC92        14.6230    19.5810    15.6710 hc         1 BDI       0.035033
     24 HC93        16.2730    20.2050    15.7410 hc         1 BDI       0.035033
     25 HN2         17.8910    18.3400    20.2260 hn         1 BDI       0.375000
     26 HN5         16.8990    18.0050    25.0720 hn         1 BDI       0.350500
     27 HN4         15.2810    16.4650    25.0450 hn         1 BDI       0.347500
@<TRIPOS>BOND
     1     1     2 2   
     2     1    14 1   
     3     2     3 1   
     4     2     7 1   
     5     3     4 1   
     6     3    16 1   
     7     3    17 1   
     8     4     5 1   
     9     4    18 1   
    10     4    19 1   
    11     5     6 1   
    12     5    20 1   
    13     5    21 1   
    14     6    22 1   
    15     6    23 1   
    16     6    24 1   
    17     7     8 1   
    18     7    25 1   
    19     8     9 1   
    20     8    14 2   
    21     9    10 1   
    22     9    15 2   
    23    10    11 1   
    24    10    26 1   
    25    11    12 1   
    26    11    27 1   
    27    12    13 2   
    28    12    14 1   
@<TRIPOS>SUBSTRUCTURE
     1 BDI         1 TEMP              0 ****  ****    0 ROOT
