@<TRIPOS>MOLECULE
BDJ
   31    32     1     0     0
SMALL
No Charge or Current Charge


@<TRIPOS>ATOM
      1 C1          -1.7540    -1.5060     0.7440 c2         1 BDJ       0.686800
      2 N1          -2.8870    -1.5910    -0.0060 nu         1 BDJ      -0.912400
      3 O1          -2.0370     1.9300     0.1950 o          1 BDJ      -0.510000
      4 C2          -2.1320     0.7080     0.1830 c          1 BDJ       0.563000
      5 N2          -1.3530    -0.1880     0.8910 n          1 BDJ      -0.392300
      6 C3          -3.1290    -0.2280    -0.5530 c5         1 BDJ       0.157200
      7 N3          -1.1300    -2.5500     1.0750 n2         1 BDJ      -0.873100
      8 C4          -2.8490    -0.2210    -2.0750 c3         1 BDJ      -0.093600
      9 C5          -4.5910     0.1990    -0.2820 c3         1 BDJ      -0.093600
     10 C6          -0.2260     0.2800     1.7180 c3         1 BDJ       0.159300
     11 C7           0.9720     0.7300     0.8890 ca         1 BDJ      -0.106300
     12 C8           1.3280     2.0930     0.8340 ca         1 BDJ      -0.083000
     13 C9           2.4270     2.5100     0.0630 ca         1 BDJ      -0.102000
     14 C10          3.1770     1.5670    -0.6610 ca         1 BDJ      -0.095000
     15 C11          2.8250     0.2090    -0.6110 ca         1 BDJ       0.117000
     16 C12          1.7280    -0.2100     0.1600 ca         1 BDJ      -0.094000
     17 Cl1          3.7600    -0.9720    -1.5200 cl         1 BDJ      -0.202000
     18 H1          -2.9010    -2.4130    -0.6050 hn         1 BDJ       0.514000
     19 H2          -0.2750    -2.2670     1.5670 hn         1 BDJ       0.400400
     20 H3          -3.5190    -0.9050    -2.6100 hc         1 BDJ       0.053033
     21 H4          -2.9930     0.7810    -2.4980 hc         1 BDJ       0.053033
     22 H5          -1.8180    -0.5240    -2.2920 hc         1 BDJ       0.053033
     23 H6          -4.8090     0.1990     0.7930 hc         1 BDJ       0.053033
     24 H7          -4.7860     1.2100    -0.6590 hc         1 BDJ       0.053033
     25 H8          -5.3020    -0.4810    -0.7660 hc         1 BDJ       0.053033
     26 H9          -0.5730     1.1120     2.3450 h1         1 BDJ       0.067200
     27 H10          0.0890    -0.5170     2.4040 h1         1 BDJ       0.067200
     28 H11          0.7500     2.8320     1.3860 ha         1 BDJ       0.123000
     29 H12          2.6950     3.5640     0.0250 ha         1 BDJ       0.121000
     30 H13          4.0260     1.8880    -1.2590 ha         1 BDJ       0.131000
     31 H14          1.4670    -1.2650     0.1840 ha         1 BDJ       0.131000
@<TRIPOS>BOND
     1     1     2 1   
     2     1     5 1   
     3     1     7 2   
     4     2     6 1   
     5     2    18 1   
     6     3     4 2   
     7     4     5 1   
     8     4     6 1   
     9     5    10 1   
    10     6     8 1   
    11     6     9 1   
    12     7    19 1   
    13     8    20 1   
    14     8    21 1   
    15     8    22 1   
    16     9    23 1   
    17     9    24 1   
    18     9    25 1   
    19    10    11 1   
    20    10    26 1   
    21    10    27 1   
    22    11    12 ar  
    23    11    16 ar  
    24    12    13 ar  
    25    12    28 1   
    26    13    14 ar  
    27    13    29 1   
    28    14    15 ar  
    29    14    30 1   
    30    15    16 ar  
    31    15    17 1   
    32    16    31 1   
@<TRIPOS>SUBSTRUCTURE
     1 BDJ         1 TEMP              0 ****  ****    0 ROOT
