@<TRIPOS>MOLECULE
BDJ
   31    32     1     0     0
SMALL
abcg2


@<TRIPOS>ATOM
      1 C1          -1.6250    -1.5000     0.7150 c2         1 BDJ       0.686800
      2 N1          -2.7420    -1.5510    -0.0570 nu         1 BDJ      -0.912400
      3 O1          -2.1390     1.8600     0.1230 o          1 BDJ      -0.510000
      4 C2          -2.1690     0.6520     0.1610 c          1 BDJ       0.563000
      5 N2          -1.3390    -0.1390     0.8950 n          1 BDJ      -0.392300
      6 C3          -3.1160    -0.2610    -0.5990 c5         1 BDJ       0.157200
      7 N3          -1.0080    -2.5140     1.1670 n2         1 BDJ      -0.873100
      8 C4          -2.8240    -0.1590    -2.0970 c3         1 BDJ      -0.093600
      9 C5          -4.5670     0.0900    -0.2920 c3         1 BDJ      -0.093600
     10 C6          -0.2620     0.3920     1.6990 c3         1 BDJ       0.159300
     11 C7           0.9380     0.7800     0.8740 ca         1 BDJ      -0.106300
     12 C8           1.4080     2.0870     0.8930 ca         1 BDJ      -0.083000
     13 C9           2.5190     2.4450     0.1410 ca         1 BDJ      -0.102000
     14 C10          3.1700     1.5070    -0.6440 ca         1 BDJ      -0.095000
     15 C11          2.6890     0.2060    -0.6610 ca         1 BDJ       0.117000
     16 C12          1.5870    -0.1690     0.0880 ca         1 BDJ      -0.094000
     17 CL1          3.4900    -0.9820    -1.6380 cl         1 BDJ      -0.202000
     18 H1          -2.9670    -2.4070    -0.5390 hn         1 BDJ       0.514000
     19 H2          -0.2070    -2.2700     1.7340 hn         1 BDJ       0.400400
     20 H3          -3.4470    -0.8660    -2.6440 hc         1 BDJ       0.053033
     21 H4          -3.0460     0.8430    -2.4650 hc         1 BDJ       0.053033
     22 H5          -1.7790    -0.3840    -2.3160 hc         1 BDJ       0.053033
     23 H6          -4.7680     0.0360     0.7780 hc         1 BDJ       0.053033
     24 H7          -4.8010     1.0950    -0.6410 hc         1 BDJ       0.053033
     25 H8          -5.2350    -0.6080    -0.7990 hc         1 BDJ       0.053033
     26 H9          -0.6360     1.2580     2.2450 h1         1 BDJ       0.067200
     27 H10          0.0030    -0.3490     2.4530 h1         1 BDJ       0.067200
     28 H11          0.9040     2.8290     1.4980 ha         1 BDJ       0.123000
     29 H12          2.8790     3.4650     0.1610 ha         1 BDJ       0.121000
     30 H13          4.0350     1.7840    -1.2320 ha         1 BDJ       0.131000
     31 H14          1.2390    -1.1940     0.0570 ha         1 BDJ       0.131000
@<TRIPOS>BOND
     1     1     2 1   
     2     1     5 1   
     3     1     7 2   
     4     2     6 1   
     5     2    18 1   
     6     3     4 2   
     7     4     5 1   
     8     4     6 1   
     9     5    10 1   
    10     6     8 1   
    11     6     9 1   
    12     7    19 1   
    13     8    20 1   
    14     8    21 1   
    15     8    22 1   
    16     9    23 1   
    17     9    24 1   
    18     9    25 1   
    19    10    11 1   
    20    10    26 1   
    21    10    27 1   
    22    11    12 ar  
    23    11    16 ar  
    24    12    13 ar  
    25    12    28 1   
    26    13    14 ar  
    27    13    29 1   
    28    14    15 ar  
    29    14    30 1   
    30    15    16 ar  
    31    15    17 1   
    32    16    31 1   
@<TRIPOS>SUBSTRUCTURE
     1 BDJ         1 TEMP              0 ****  ****    0 ROOT
