@<TRIPOS>MOLECULE
BDK
   67    69     1     0     0
SMALL
No Charge or Current Charge


@<TRIPOS>ATOM
      1 C1           3.7480     0.9190    -1.7020 c3         1 BDK      -0.004000
      2 C2           3.7110    -0.2280    -0.6730 c          1 BDK       0.525100
      3 C3           3.3660     0.1460     0.8020 c3         1 BDK       0.026700
      4 C4           4.5480    -0.0010     1.8110 c3         1 BDK      -0.064700
      5 C5           5.0340    -1.4600     2.0100 c3         1 BDK      -0.093100
      6 C6           5.7340     0.9320     1.4750 c3         1 BDK      -0.093100
      7 C8          -0.1640    -1.1590     1.7840 c3         1 BDK       0.000000
      8 C9          -1.9320    -0.8440     0.1410 c          1 BDK       0.545200
      9 C10         -3.3670    -0.5520    -0.1450 cc         1 BDK       0.036800
     10 C11         -4.2660    -0.2710     0.8570 cd         1 BDK      -0.058400
     11 C12         -2.4970    -0.2250     2.4230 cc         1 BDK       0.532500
     12 C13         -2.0550     0.2140     3.7510 cc         1 BDK      -0.283900
     13 C14         -2.9670     0.5630     4.7340 cd         1 BDK      -0.083000
     14 C15         -2.3800     1.0350     5.9370 cd         1 BDK      -0.142000
     15 C16         -1.0130     1.0820     5.8990 cc         1 BDK      -0.248000
     16 C17          2.3130     1.4250    -1.9390 c          1 BDK       0.562100
     17 C18          0.0650     0.8340    -2.9130 c3         1 BDK       0.104000
     18 C19         -0.5870    -0.2860    -3.7650 c3         1 BDK       0.143800
     19 C20         -2.5940    -1.3390    -4.7450 c6         1 BDK       0.118300
     20 C21         -4.1210    -1.2170    -5.0270 c6         1 BDK       0.150600
     21 C22         -3.9810     1.1860    -4.9370 c6         1 BDK       0.150600
     22 C23         -2.4490     1.1150    -4.6660 c6         1 BDK       0.118300
     23 N1           2.1880    -0.6410     1.2380 ns         1 BDK      -0.501900
     24 N2          -1.5580    -0.6980     1.4820 n          1 BDK      -0.285300
     25 N3          -3.8100    -0.1150     2.1670 nd         1 BDK      -0.571300
     26 N5           1.4690     0.5430    -2.5850 ns         1 BDK      -0.489900
     27 N6          -2.0560    -0.1630    -3.9860 n3         1 BDK      -0.720600
     28 O1           3.8900    -1.3940    -1.0100 o          1 BDK      -0.471100
     29 O3          -1.1360    -1.2070    -0.7220 o          1 BDK      -0.578000
     30 O4           1.9370     2.5380    -1.6020 o          1 BDK      -0.537100
     31 O5          -4.4100     0.0320    -5.6970 os         1 BDK      -0.446000
     32 F1           4.5490     1.9240    -1.2660 f          1 BDK      -0.088500
     33 F2           4.2910     0.4980    -2.8740 f          1 BDK      -0.088500
     34 S1          -0.4150     0.5510     4.3350 ss         1 BDK       0.272000
     35 H3           3.0880     1.2090     0.7940 h1         1 BDK       0.117700
     36 H4           4.1630     0.3320     2.7840 hc         1 BDK       0.061700
     37 H51          5.7950    -1.5040     2.7990 hc         1 BDK       0.041200
     38 H52          4.2110    -2.1190     2.3100 hc         1 BDK       0.041200
     39 H53          5.4820    -1.8600     1.0930 hc         1 BDK       0.041200
     40 H61          6.2140     0.6410     0.5330 hc         1 BDK       0.041200
     41 H62          5.4000     1.9730     1.3890 hc         1 BDK       0.041200
     42 H63          6.4930     0.8900     2.2670 hc         1 BDK       0.041200
     43 H81          0.0420    -2.0700     1.2080 h1         1 BDK       0.085200
     44 H82         -0.0460    -1.4700     2.8250 h1         1 BDK       0.085200
     45 H11         -5.3270    -0.1210     0.6710 h4         1 BDK       0.211000
     46 H14         -4.0450     0.4830     4.6230 ha         1 BDK       0.143000
     47 H15         -2.9620     1.3350     6.8040 ha         1 BDK       0.137000
     48 H16         -0.3130     1.3980     6.6620 h4         1 BDK       0.151000
     49 H181        -0.4960     0.9590    -1.9780 h1         1 BDK       0.062200
     50 H182         0.0230     1.7820    -3.4630 h1         1 BDK       0.062200
     51 H191        -0.0680    -0.3180    -4.7330 h1         1 BDK       0.048700
     52 H192        -0.3830    -1.2430    -3.2680 h1         1 BDK       0.048700
     53 H201        -2.0720    -1.4400    -5.7080 h1         1 BDK       0.047700
     54 H202        -2.4120    -2.2680    -4.1850 h1         1 BDK       0.047700
     55 H211        -4.4500    -2.0500    -5.6640 h1         1 BDK       0.052450
     56 H212        -4.6870    -1.2650    -4.0870 h1         1 BDK       0.052450
     57 H221        -4.2190     2.0980    -5.5010 h1         1 BDK       0.052450
     58 H222        -4.5300     1.2200    -3.9850 h1         1 BDK       0.052450
     59 H231        -2.1700     1.9830    -4.0520 h1         1 BDK       0.047700
     60 H232        -1.9200     1.2150    -5.6260 h1         1 BDK       0.047700
     61 HN1          2.3020    -1.6400     1.3820 hn         1 BDK       0.326500
     62 HN41        -4.6470    -0.2910    -1.7810 hn         1 BDK       0.487500
     63 HN42        -2.9960    -0.5990    -2.2080 hn         1 BDK       0.487500
     64 HN5          1.8540    -0.3560    -2.8550 hn         1 BDK       0.331500
     65 C7           0.9170    -0.1310     1.3940 c          1 BDK       0.590100
     66 N4          -3.7310    -0.6200    -1.4850 nv         1 BDK      -0.958000
     67 O2           0.6760     1.0550     1.2250 o          1 BDK      -0.568100
@<TRIPOS>BOND
     1     1     2 1   
     2     1    16 1   
     3     1    32 1   
     4     1    33 1   
     5     2     3 1   
     6     2    28 2   
     7     3     4 1   
     8     3    23 1   
     9     3    35 1   
    10     4     5 1   
    11     4     6 1   
    12     4    36 1   
    13     5    37 1   
    14     5    38 1   
    15     5    39 1   
    16     6    40 1   
    17     6    41 1   
    18     6    42 1   
    19     7    24 1   
    20     7    43 1   
    21     7    44 1   
    22     7    65 1   
    23     8     9 1   
    24     8    24 1   
    25     8    29 2   
    26     9    10 2   
    27     9    66 1   
    28    10    25 1   
    29    10    45 1   
    30    11    12 1   
    31    11    24 1   
    32    11    25 2   
    33    12    13 2   
    34    12    34 1   
    35    13    14 1   
    36    13    46 1   
    37    14    15 2   
    38    14    47 1   
    39    15    34 1   
    40    15    48 1   
    41    16    26 1   
    42    16    30 2   
    43    17    18 1   
    44    17    26 1   
    45    17    49 1   
    46    17    50 1   
    47    18    27 1   
    48    18    51 1   
    49    18    52 1   
    50    19    20 1   
    51    19    27 1   
    52    19    53 1   
    53    19    54 1   
    54    20    31 1   
    55    20    55 1   
    56    20    56 1   
    57    21    22 1   
    58    21    31 1   
    59    21    57 1   
    60    21    58 1   
    61    22    27 1   
    62    22    59 1   
    63    22    60 1   
    64    23    61 1   
    65    23    65 1   
    66    26    64 1   
    67    62    66 1   
    68    63    66 1   
    69    65    67 2   
@<TRIPOS>SUBSTRUCTURE
     1 BDK         1 TEMP              0 ****  ****    0 ROOT
