@<TRIPOS>MOLECULE
BDK
   67    69     1     0     0
SMALL
abcg2


@<TRIPOS>ATOM
      1 C1           3.4960     1.1000    -1.5980 c3         1 BDK      -0.004000
      2 C2           3.4460    -0.0960    -0.6330 c          1 BDK       0.525100
      3 C3           3.1530     0.1740     0.8360 c3         1 BDK       0.026700
      4 C4           4.3460    -0.1590     1.7580 c3         1 BDK      -0.064700
      5 C5           4.7150    -1.6370     1.8010 c3         1 BDK      -0.093100
      6 C6           5.5650     0.6960     1.4260 c3         1 BDK      -0.093100
      7 C8          -0.3210    -0.9530     1.8590 c3         1 BDK       0.000000
      8 C9          -1.8830    -0.3070     0.1810 c          1 BDK       0.545200
      9 C10         -3.1700     0.2720    -0.1620 cc         1 BDK       0.036800
     10 C11         -3.9310     0.7660     0.8590 cd         1 BDK      -0.058400
     11 C12         -2.4030     0.2450     2.4730 cc         1 BDK       0.532500
     12 C13         -2.0140     0.2590     3.8890 cc         1 BDK      -0.283900
     13 C14         -2.7610    -0.2550     4.9110 cd         1 BDK      -0.083000
     14 C15         -2.1970    -0.0070     6.1880 cd         1 BDK      -0.142000
     15 C16         -1.0380     0.7030     6.1130 cc         1 BDK      -0.248000
     16 C17          2.0610     1.5530    -1.9390 c          1 BDK       0.562100
     17 C18          0.0780     1.0160    -3.2550 c3         1 BDK       0.104000
     18 C19         -0.4750    -0.2840    -3.8210 c3         1 BDK       0.143800
     19 C20         -2.4280    -1.5510    -4.3510 c6         1 BDK       0.118300
     20 C21         -3.9220    -1.4960    -4.6060 c6         1 BDK       0.150600
     21 C22         -3.7620     0.6930    -5.3500 c6         1 BDK       0.150600
     22 C23         -2.2610     0.6970    -5.1300 c6         1 BDK       0.118300
     23 N1           1.9660    -0.5700     1.1860 ns         1 BDK      -0.501900
     24 N2          -1.5890    -0.3370     1.5320 n          1 BDK      -0.285300
     25 N3          -3.5390     0.7660     2.1570 nd         1 BDK      -0.571300
     26 N5           1.4600     0.8100    -2.8650 ns         1 BDK      -0.489900
     27 N6          -1.9050    -0.2230    -4.0580 n3         1 BDK      -0.720600
     28 O1           3.5540    -1.2020    -1.0870 o          1 BDK      -0.471100
     29 O3          -1.0960    -0.7570    -0.6400 o          1 BDK      -0.578000
     30 O4           1.5650     2.4740    -1.3240 o          1 BDK      -0.537100
     31 O5          -4.2400    -0.5980    -5.6470 os         1 BDK      -0.446000
     32 F1           4.1580     2.1310    -1.0380 f          1 BDK      -0.088500
     33 F2           4.1610     0.7380    -2.7160 f          1 BDK      -0.088500
     34 S1          -0.6170     1.0770     4.4980 ss         1 BDK       0.272000
     35 H3           2.9170     1.2290     0.9760 h1         1 BDK       0.117700
     36 H4           3.9980     0.1270     2.7560 hc         1 BDK       0.061700
     37 H51          5.4650    -1.7960     2.5770 hc         1 BDK       0.041200
     38 H52          3.8660    -2.2760     2.0480 hc         1 BDK       0.041200
     39 H53          5.1430    -1.9870     0.8620 hc         1 BDK       0.041200
     40 H61          5.9810     0.4560     0.4450 hc         1 BDK       0.041200
     41 H62          5.3370     1.7610     1.4500 hc         1 BDK       0.041200
     42 H63          6.3520     0.5120     2.1580 hc         1 BDK       0.041200
     43 H81         -0.2220    -1.8920     1.3170 h1         1 BDK       0.085200
     44 H82         -0.2910    -1.1970     2.9200 h1         1 BDK       0.085200
     45 H11         -4.8980     1.2110     0.6530 h4         1 BDK       0.211000
     46 H14         -3.6800    -0.7990     4.7460 ha         1 BDK       0.143000
     47 H15         -2.6340    -0.3430     7.1170 ha         1 BDK       0.137000
     48 H16         -0.4040     1.0250     6.9250 h4         1 BDK       0.151000
     49 H181        -0.4940     1.3020    -2.3750 h1         1 BDK       0.062200
     50 H182         0.0180     1.8330    -3.9770 h1         1 BDK       0.062200
     51 H191         0.0720    -0.5530    -4.7410 h1         1 BDK       0.048700
     52 H192        -0.2910    -1.0730    -3.0910 h1         1 BDK       0.048700
     53 H201        -1.9200    -1.9960    -5.2230 h1         1 BDK       0.047700
     54 H202        -2.2400    -2.2050    -3.4970 h1         1 BDK       0.047700
     55 H211        -4.2830    -2.4820    -4.9010 h1         1 BDK       0.052450
     56 H212        -4.4420    -1.2100    -3.6810 h1         1 BDK       0.052450
     57 H221        -4.0140     1.3410    -6.1910 h1         1 BDK       0.052450
     58 H222        -4.2640     1.0950    -4.4570 h1         1 BDK       0.052450
     59 H231        -1.9560     1.7110    -4.8700 h1         1 BDK       0.047700
     60 H232        -1.7490     0.4300    -6.0690 h1         1 BDK       0.047700
     61 HN1          1.9850    -1.5720     1.0780 hn         1 BDK       0.326500
     62 HN41        -4.3190     0.8180    -1.7360 hn         1 BDK       0.487500
     63 HN42        -2.8320     0.1380    -2.1960 hn         1 BDK       0.487500
     64 HN5          1.9950     0.1300    -3.3840 hn         1 BDK       0.331500
     65 C7           0.8050     0.0150     1.5320 c          1 BDK       0.590100
     66 N4          -3.5380     0.2410    -1.4700 nv         1 BDK      -0.958000
     67 O2           0.6380     1.2150     1.6290 o          1 BDK      -0.568100
@<TRIPOS>BOND
     1     1     2 1   
     2     1    16 1   
     3     1    32 1   
     4     1    33 1   
     5     2     3 1   
     6     2    28 2   
     7     3     4 1   
     8     3    23 1   
     9     3    35 1   
    10     4     5 1   
    11     4     6 1   
    12     4    36 1   
    13     5    37 1   
    14     5    38 1   
    15     5    39 1   
    16     6    40 1   
    17     6    41 1   
    18     6    42 1   
    19     7    24 1   
    20     7    43 1   
    21     7    44 1   
    22     7    65 1   
    23     8     9 1   
    24     8    24 1   
    25     8    29 2   
    26     9    10 2   
    27     9    66 1   
    28    10    25 1   
    29    10    45 1   
    30    11    12 1   
    31    11    24 1   
    32    11    25 2   
    33    12    13 2   
    34    12    34 1   
    35    13    14 1   
    36    13    46 1   
    37    14    15 2   
    38    14    47 1   
    39    15    34 1   
    40    15    48 1   
    41    16    26 1   
    42    16    30 2   
    43    17    18 1   
    44    17    26 1   
    45    17    49 1   
    46    17    50 1   
    47    18    27 1   
    48    18    51 1   
    49    18    52 1   
    50    19    20 1   
    51    19    27 1   
    52    19    53 1   
    53    19    54 1   
    54    20    31 1   
    55    20    55 1   
    56    20    56 1   
    57    21    22 1   
    58    21    31 1   
    59    21    57 1   
    60    21    58 1   
    61    22    27 1   
    62    22    59 1   
    63    22    60 1   
    64    23    61 1   
    65    23    65 1   
    66    26    64 1   
    67    62    66 1   
    68    63    66 1   
    69    65    67 2   
@<TRIPOS>SUBSTRUCTURE
     1 BDK         1 TEMP              0 ****  ****    0 ROOT
