@<TRIPOS>MOLECULE
BDL
   44    45     1     0     0
SMALL
No Charge or Current Charge


@<TRIPOS>ATOM
      1 O4          -4.3540    -0.4890     1.5120 o          1 BDL      -0.713500
      2 C15         -3.1500    -0.7160     1.5410 c          1 BDL       0.711000
      3 O3          -2.5160    -0.8490     2.5800 o          1 BDL      -0.713500
      4 C17         -2.3760    -0.8090     0.1710 c3         1 BDL       0.046500
      5 C16         -2.7640    -2.1130    -0.5780 c3         1 BDL      -0.048400
      6 C14         -1.9000    -2.4560    -1.8280 c3         1 BDL      -0.064700
      7 C18         -0.4060    -2.6820    -1.4870 c3         1 BDL      -0.081100
      8 C13         -2.4780    -3.6790    -2.5770 c3         1 BDL      -0.081100
      9 N1          -2.5930     0.3720    -0.7360 n7         1 BDL      -0.846300
     10 S1          -1.9170     1.8480    -0.3370 sy         1 BDL       1.128600
     11 O1          -1.9950     2.6390    -1.5680 o          1 BDL      -0.559500
     12 O2          -2.5560     2.2740     0.9090 o          1 BDL      -0.559500
     13 C7          -0.1980     1.3930    -0.0500 ca         1 BDL      -0.246500
     14 C5           0.6470     1.1270    -1.1430 ca         1 BDL      -0.010000
     15 C3           1.9810     0.7430    -0.9250 ca         1 BDL      -0.128500
     16 C6           0.3010     1.2700     1.2620 ca         1 BDL      -0.010000
     17 C4           1.6370     0.8880     1.4720 ca         1 BDL      -0.128500
     18 C1           2.5050     0.6150     0.3850 cp         1 BDL      -0.007000
     19 C2           3.9260     0.2000     0.6140 cp         1 BDL      -0.028000
     20 C9           4.6780     0.7210     1.6990 ca         1 BDL      -0.097500
     21 C12          6.0110     0.3320     1.9130 ca         1 BDL      -0.115500
     22 C11          6.6220    -0.5900     1.0490 ca         1 BDL      -0.115000
     23 C10          5.8990    -1.1210    -0.0310 ca         1 BDL      -0.115500
     24 C8           4.5660    -0.7300    -0.2460 ca         1 BDL      -0.097500
     25 H17         -1.3140    -0.8960     0.4300 h1         1 BDL       0.047700
     26 H16         -2.7010    -2.9500     0.1280 hc         1 BDL       0.047700
     27 H16A        -3.8170    -2.0440    -0.8770 hc         1 BDL       0.047700
     28 H14         -1.9520    -1.6070    -2.5210 hc         1 BDL       0.048700
     29 H18         -0.2910    -3.4840    -0.7480 hc         1 BDL       0.022033
     30 H18A         0.1570    -2.9620    -2.3850 hc         1 BDL       0.022033
     31 H18B         0.0530    -1.7720    -1.0840 hc         1 BDL       0.022033
     32 H13         -3.5180    -3.4970    -2.8730 hc         1 BDL       0.022033
     33 H13A        -1.9010    -3.8860    -3.4860 hc         1 BDL       0.022033
     34 H13B        -2.4520    -4.5740    -1.9430 hc         1 BDL       0.022033
     35 HN1         -3.5830     0.6120    -0.7160 hn         1 BDL       0.504000
     36 H5           0.2700     1.2090    -2.1620 ha         1 BDL       0.139000
     37 H3           2.6160     0.5530    -1.7860 ha         1 BDL       0.109000
     38 H6          -0.3430     1.4580     2.1190 ha         1 BDL       0.139000
     39 H4           1.9950     0.7840     2.4920 ha         1 BDL       0.109000
     40 H9           4.2270     1.4460     2.3720 ha         1 BDL       0.117500
     41 H12          6.5700     0.7470     2.7490 ha         1 BDL       0.107500
     42 H11          7.6540    -0.8920     1.2150 ha         1 BDL       0.105000
     43 H10          6.3700    -1.8370    -0.7010 ha         1 BDL       0.107500
     44 H8           4.0200    -1.1630    -1.0800 ha         1 BDL       0.117500
@<TRIPOS>BOND
     1     1     2 1   
     2     2     3 1   
     3     2     4 1   
     4     4     5 1   
     5     4     9 1   
     6     4    25 1   
     7     5     6 1   
     8     5    26 1   
     9     5    27 1   
    10     6     7 1   
    11     6     8 1   
    12     6    28 1   
    13     7    29 1   
    14     7    30 1   
    15     7    31 1   
    16     8    32 1   
    17     8    33 1   
    18     8    34 1   
    19     9    10 1   
    20     9    35 1   
    21    10    11 2   
    22    10    12 2   
    23    10    13 1   
    24    13    14 ar  
    25    13    16 ar  
    26    14    15 ar  
    27    14    36 1   
    28    15    18 ar  
    29    15    37 1   
    30    16    17 ar  
    31    16    38 1   
    32    17    18 ar  
    33    17    39 1   
    34    18    19 1   
    35    19    20 ar  
    36    19    24 ar  
    37    20    21 ar  
    38    20    40 1   
    39    21    22 ar  
    40    21    41 1   
    41    22    23 ar  
    42    22    42 1   
    43    23    24 ar  
    44    23    43 1   
    45    24    44 1   
@<TRIPOS>SUBSTRUCTURE
     1 BDL         1 TEMP              0 ****  ****    0 ROOT
