@<TRIPOS>MOLECULE
BDL
   44    45     1     0     0
SMALL
bcc


@<TRIPOS>ATOM
      1 O4          -5.1220     0.0840     0.2100 o          1 BDL      -0.818800
      2 C15         -4.3050    -0.6670     0.7780 c          1 BDL       0.921600
      3 O3          -4.5090    -1.4130     1.7510 o          1 BDL      -0.818800
      4 C17         -2.8820    -0.7230     0.1690 c3         1 BDL       0.046500
      5 C16         -2.7120    -1.9990    -0.6570 c3         1 BDL      -0.048400
      6 C14         -1.3030    -2.2330    -1.2010 c3         1 BDL      -0.064700
      7 C18         -0.3050    -2.5490    -0.0920 c3         1 BDL      -0.081100
      8 C13         -1.3160    -3.3490    -2.2420 c3         1 BDL      -0.081100
      9 N1          -2.6310     0.4380    -0.6910 n7         1 BDL      -0.791100
     10 S1          -1.9340     1.7580    -0.0010 sy         1 BDL       1.270200
     11 O1          -2.0580     2.8360    -0.9750 o          1 BDL      -0.630300
     12 O2          -2.3910     2.0120     1.3620 o          1 BDL      -0.630300
     13 C7          -0.2410     1.2530     0.0910 ca         1 BDL      -0.246500
     14 C5           0.4710     1.0860    -1.0900 ca         1 BDL      -0.028000
     15 C3           1.7940     0.6940    -1.0330 ca         1 BDL      -0.146500
     16 C6           0.3610     1.0420     1.3210 ca         1 BDL      -0.028000
     17 C4           1.6900     0.6490     1.3650 ca         1 BDL      -0.146500
     18 C1           2.4250     0.4680     0.1950 cp         1 BDL      -0.007000
     19 C2           3.8390     0.0500     0.2450 cp         1 BDL      -0.028000
     20 C9           4.6870     0.5210     1.2500 ca         1 BDL      -0.115500
     21 C12          6.0180     0.1340     1.2910 ca         1 BDL      -0.133500
     22 C11          6.5250    -0.7320     0.3300 ca         1 BDL      -0.133000
     23 C10          5.6900    -1.2080    -0.6720 ca         1 BDL      -0.133500
     24 C8           4.3590    -0.8200    -0.7140 ca         1 BDL      -0.115500
     25 H17         -2.1540    -0.7330     0.9850 h1         1 BDL       0.047700
     26 H16         -3.0100    -2.8510    -0.0380 hc         1 BDL       0.047700
     27 H16A        -3.4220    -1.9640    -1.4930 hc         1 BDL       0.047700
     28 H14         -0.9750    -1.3130    -1.6960 hc         1 BDL       0.048700
     29 H18         -0.5630    -3.4860     0.4100 hc         1 BDL       0.022033
     30 H18A         0.7040    -2.6550    -0.4940 hc         1 BDL       0.022033
     31 H18B        -0.2650    -1.7650     0.6650 hc         1 BDL       0.022033
     32 H13         -1.9810    -3.1080    -3.0740 hc         1 BDL       0.022033
     33 H13A        -0.3190    -3.5190    -2.6520 hc         1 BDL       0.022033
     34 H13B        -1.6590    -4.2900    -1.8060 hc         1 BDL       0.022033
     35 HN1         -3.5100     0.7190    -1.1290 hn         1 BDL       0.448800
     36 H5           0.0050     1.2600    -2.0510 ha         1 BDL       0.157000
     37 H3           2.3480     0.5850    -1.9560 ha         1 BDL       0.127000
     38 H6          -0.1930     1.1680     2.2410 ha         1 BDL       0.157000
     39 H4           2.1470     0.4620     2.3280 ha         1 BDL       0.127000
     40 H9           4.3120     1.2120     1.9940 ha         1 BDL       0.135500
     41 H12          6.6630     0.5180     2.0710 ha         1 BDL       0.125500
     42 H11          7.5640    -1.0330     0.3630 ha         1 BDL       0.123000
     43 H10          6.0740    -1.8890    -1.4210 ha         1 BDL       0.125500
     44 H8           3.7160    -1.2160    -1.4900 ha         1 BDL       0.135500
@<TRIPOS>BOND
     1     1     2 1   
     2     2     3 1   
     3     2     4 1   
     4     4     5 1   
     5     4     9 1   
     6     4    25 1   
     7     5     6 1   
     8     5    26 1   
     9     5    27 1   
    10     6     7 1   
    11     6     8 1   
    12     6    28 1   
    13     7    29 1   
    14     7    30 1   
    15     7    31 1   
    16     8    32 1   
    17     8    33 1   
    18     8    34 1   
    19     9    10 1   
    20     9    35 1   
    21    10    11 2   
    22    10    12 2   
    23    10    13 1   
    24    13    14 ar  
    25    13    16 ar  
    26    14    15 ar  
    27    14    36 1   
    28    15    18 ar  
    29    15    37 1   
    30    16    17 ar  
    31    16    38 1   
    32    17    18 ar  
    33    17    39 1   
    34    18    19 1   
    35    19    20 ar  
    36    19    24 ar  
    37    20    21 ar  
    38    20    40 1   
    39    21    22 ar  
    40    21    41 1   
    41    22    23 ar  
    42    22    42 1   
    43    23    24 ar  
    44    23    43 1   
    45    24    44 1   
@<TRIPOS>SUBSTRUCTURE
     1 BDL         1 TEMP              0 ****  ****    0 ROOT
