@<TRIPOS>MOLECULE
BDM
   55    56     1     0     0
SMALL
bcc


@<TRIPOS>ATOM
      1 N1           5.7500    -4.3630    -0.6240 na         1 BDM      -0.373900
      2 C2           5.4460    -4.7630     0.6320 ca         1 BDM       0.745000
      3 N2           6.3220    -5.5000     1.2950 nv         1 BDM      -0.513900
      4 N3           4.3040    -4.4300     1.1990 nb         1 BDM      -0.849000
      5 C4           3.4300    -3.6890     0.5230 ca         1 BDM       0.803200
      6 N4           2.2990    -3.3830     1.1360 nv         1 BDM      -0.868500
      7 C5           3.6850    -3.2390    -0.8190 ca         1 BDM      -0.249600
      8 C6           4.8750    -3.6120    -1.3370 ca         1 BDM       0.006700
      9 C7           2.6960    -2.4240    -1.5940 c3         1 BDM       0.013200
     10 C8           2.4370    -1.0600    -0.9940 ca         1 BDM      -0.045300
     11 C9           1.1310    -0.6150    -0.8510 ca         1 BDM      -0.269000
     12 C10          0.8760     0.6550    -0.3290 ca         1 BDM       0.248100
     13 O10         -0.3470     1.1650    -0.1700 os         1 BDM      -0.274900
     14 C11          1.9510     1.4560     0.0560 ca         1 BDM      -0.114900
     15 BR11         1.6240     3.1600     0.7710 br         1 BDM      -0.021100
     16 C12          3.2680     1.0060    -0.0790 ca         1 BDM       0.203100
     17 O12          4.2300     1.8430     0.3210 os         1 BDM      -0.288900
     18 C13          3.5040    -0.2600    -0.6080 ca         1 BDM      -0.286000
     19 C14          5.5800     1.4170     0.2540 c3         1 BDM       0.128700
     20 C15         -1.4810     0.3580    -0.4780 c3         1 BDM       0.129400
     21 C16         -2.7310     1.1740    -0.2320 c3         1 BDM      -0.081400
     22 C17         -3.9820     0.3360    -0.4730 c3         1 BDM      -0.041400
     23 C18         -5.2840     1.1330    -0.3890 c3         1 BDM      -0.193700
     24 C19         -6.4770     0.2300    -0.7040 c3         1 BDM      -0.024400
     25 C20         -7.8060     0.9660    -0.7530 c3         1 BDM      -0.196400
     26 C21         -5.4350     1.7840     0.9990 c          1 BDM       0.929600
     27 OXV         -5.5080     3.0290     1.0540 o          1 BDM      -0.853800
     28 OXW         -5.4780     1.0020     1.9740 o          1 BDM      -0.853800
     29 C22         -9.0340     0.1170    -1.1260 c          1 BDM       0.924600
     30 OX5         -8.8860    -1.1180    -1.2190 o          1 BDM      -0.872300
     31 OX6        -10.1010     0.7440    -1.3000 o          1 BDM      -0.872300
     32 HN1          6.6290    -4.6250    -1.0480 hn         1 BDM       0.319700
     33 HN21         7.1950    -5.7980     0.8930 hn         1 BDM       0.322700
     34 HN22         6.0980    -5.8140     2.2240 hn         1 BDM       0.322700
     35 HN41         2.1380    -3.7000     2.0780 hn         1 BDM       0.486800
     36 HN42         1.5970    -2.7930     0.7220 hn         1 BDM       0.486800
     37 H6           5.1920    -3.3430    -2.3330 h4         1 BDM       0.190000
     38 H71          1.7530    -2.9680    -1.6870 hc         1 BDM       0.077200
     39 H72          3.0700    -2.3000    -2.6130 hc         1 BDM       0.077200
     40 H9           0.3170    -1.2580    -1.1580 ha         1 BDM       0.151000
     41 H13          4.5140    -0.6260    -0.7300 ha         1 BDM       0.114000
     42 H141         6.1760     2.2380     0.6430 h1         1 BDM       0.038033
     43 H142         5.7560     0.5300     0.8660 h1         1 BDM       0.038033
     44 H143         5.8920     1.2120    -0.7730 h1         1 BDM       0.038033
     45 H151        -1.4410     0.0360    -1.5240 h1         1 BDM       0.026200
     46 H152        -1.4760    -0.5410     0.1480 h1         1 BDM       0.026200
     47 H161        -2.7220     1.5500     0.7940 hc         1 BDM       0.072700
     48 H162        -2.7320     2.0440    -0.8960 hc         1 BDM       0.072700
     49 H171        -3.9190    -0.1310    -1.4620 hc         1 BDM       0.015700
     50 H172        -4.0160    -0.4840     0.2510 hc         1 BDM       0.015700
     51 H18         -5.2430     1.9300    -1.1420 hc         1 BDM       0.025700
     52 H191        -6.3030    -0.2630    -1.6660 hc         1 BDM       0.018700
     53 H192        -6.5220    -0.5690     0.0400 hc         1 BDM       0.018700
     54 H201        -8.0130     1.4310     0.2180 hc         1 BDM       0.030200
     55 H202        -7.7400     1.8040    -1.4570 hc         1 BDM       0.030200
@<TRIPOS>BOND
     1     1     2 1   
     2     1     8 2   
     3     1    32 1   
     4     2     3 1   
     5     2     4 ar  
     6     3    33 1   
     7     3    34 1   
     8     4     5 ar  
     9     5     6 1   
    10     5     7 ar  
    11     6    35 1   
    12     6    36 1   
    13     7     8 ar  
    14     7     9 1   
    15     8    37 1   
    16     9    10 1   
    17     9    38 1   
    18     9    39 1   
    19    10    11 ar  
    20    10    18 ar  
    21    11    12 ar  
    22    11    40 1   
    23    12    13 1   
    24    12    14 ar  
    25    13    20 1   
    26    14    15 1   
    27    14    16 ar  
    28    16    17 1   
    29    16    18 ar  
    30    17    19 1   
    31    18    41 1   
    32    19    42 1   
    33    19    43 1   
    34    19    44 1   
    35    20    21 1   
    36    20    45 1   
    37    20    46 1   
    38    21    22 1   
    39    21    47 1   
    40    21    48 1   
    41    22    23 1   
    42    22    49 1   
    43    22    50 1   
    44    23    24 1   
    45    23    26 1   
    46    23    51 1   
    47    24    25 1   
    48    24    52 1   
    49    24    53 1   
    50    25    29 1   
    51    25    54 1   
    52    25    55 1   
    53    26    27 1   
    54    26    28 1   
    55    29    30 1   
    56    29    31 1   
@<TRIPOS>SUBSTRUCTURE
     1 BDM         1 TEMP              0 ****  ****    0 ROOT
