@<TRIPOS>MOLECULE
BDM
   55    56     1     0     0
SMALL
No Charge or Current Charge


@<TRIPOS>ATOM
      1 N1           5.8780    -4.3740    -0.4250 na         1 BDM      -0.431200
      2 C2           5.3100    -4.7420     0.7720 ca         1 BDM       0.727000
      3 N2           6.0080    -5.4880     1.6330 nv         1 BDM      -0.623500
      4 N3           4.0950    -4.4380     1.2100 nb         1 BDM      -0.841000
      5 C4           3.3730    -3.7080     0.3810 ca         1 BDM       0.698900
      6 N4           2.1950    -3.4600     0.9370 nv         1 BDM      -0.993900
      7 C5           3.7950    -3.2470    -0.8800 ca         1 BDM      -0.176300
      8 C6           5.0940    -3.6020    -1.2850 ca         1 BDM      -0.001300
      9 C7           2.9010    -2.3990    -1.7840 c3         1 BDM       0.015200
     10 C8           2.5750    -1.0460    -1.1590 ca         1 BDM      -0.037300
     11 C9           1.2390    -0.6520    -0.9640 ca         1 BDM      -0.252000
     12 C10          0.9410     0.5980    -0.3800 ca         1 BDM       0.244100
     13 O10         -0.3590     1.0210    -0.1760 os         1 BDM      -0.302100
     14 C11          1.9880     1.4510     0.0140 ca         1 BDM      -0.115900
     15 Br11         1.5860     3.1540     0.8140 br         1 BDM      -0.028100
     16 C12          3.3270     1.0640    -0.1770 ca         1 BDM       0.202100
     17 O12          4.3260     1.9310     0.2230 os         1 BDM      -0.314100
     18 C13          3.6130    -0.1860    -0.7650 ca         1 BDM      -0.263000
     19 C14          5.7210     1.6200     0.0730 c3         1 BDM       0.151900
     20 C15         -1.4950     0.2290    -0.5520 c3         1 BDM       0.154600
     21 C16         -2.7600     1.0230    -0.1770 c3         1 BDM      -0.080400
     22 C17         -4.0660     0.2760    -0.5350 c3         1 BDM      -0.043400
     23 C18         -5.3610     1.0740    -0.2190 c3         1 BDM      -0.189700
     24 C19         -6.6260     0.3170    -0.7140 c3         1 BDM      -0.029400
     25 C20         -7.9460     1.1150    -0.5610 c3         1 BDM      -0.180400
     26 C21         -5.4590     1.4430     1.2840 c          1 BDM       0.716000
     27 OXV         -5.4540     2.6270     1.5860 o          1 BDM      -0.738000
     28 OXW         -5.5200     0.5420     2.1080 o          1 BDM      -0.738000
     29 C22         -9.1190     0.3230    -1.1610 c          1 BDM       0.709000
     30 OX5         -9.7190    -0.4570    -0.4370 o          1 BDM      -0.724500
     31 OX6         -9.3710     0.4760    -2.3470 o          1 BDM      -0.724500
     32 HN1          6.8260    -4.6420    -0.6470 hn         1 BDM       0.363000
     33 HN21         6.8210    -5.9860     1.3040 hn         1 BDM       0.367000
     34 HN22         5.5010    -5.8630     2.4210 hn         1 BDM       0.367000
     35 HN41         2.1900    -3.6800     1.9230 hn         1 BDM       0.534000
     36 HN42         1.7710    -2.5760     0.6900 hn         1 BDM       0.534000
     37 H6           5.5160    -3.2920    -2.2440 h4         1 BDM       0.163000
     38 H71          1.9810    -2.9530    -2.0100 hc         1 BDM       0.073200
     39 H72          3.3860    -2.2360    -2.7540 hc         1 BDM       0.073200
     40 H9           0.4430    -1.3200    -1.2780 ha         1 BDM       0.131000
     41 H13          4.6390    -0.5050    -0.9240 ha         1 BDM       0.100000
     42 H141         6.3370     2.4430     0.4570 h1         1 BDM       0.038033
     43 H142         5.9800     0.7120     0.6330 h1         1 BDM       0.038033
     44 H143         5.9750     1.4690    -0.9840 h1         1 BDM       0.038033
     45 H151        -1.4910     0.0350    -1.6330 h1         1 BDM       0.026700
     46 H152        -1.4930    -0.7310    -0.0190 h1         1 BDM       0.026700
     47 H161        -2.7360     1.2320     0.8990 hc         1 BDM       0.072700
     48 H162        -2.7410     1.9890    -0.6950 hc         1 BDM       0.072700
     49 H171        -4.0480     0.0390    -1.6070 hc         1 BDM       0.017700
     50 H172        -4.0890    -0.6840    -0.0040 hc         1 BDM       0.017700
     51 H18         -5.3060     2.0100    -0.7880 hc         1 BDM       0.028700
     52 H191        -6.4940     0.0660    -1.7740 hc         1 BDM       0.023700
     53 H192        -6.7160    -0.6360    -0.1780 hc         1 BDM       0.023700
     54 H201        -8.1000     1.2550     0.5150 hc         1 BDM       0.039700
     55 H202        -7.8010     2.0510    -1.1150 hc         1 BDM       0.039700
@<TRIPOS>BOND
     1     1     2 1   
     2     1     8 2   
     3     1    32 1   
     4     2     3 1   
     5     2     4 ar  
     6     3    33 1   
     7     3    34 1   
     8     4     5 ar  
     9     5     6 1   
    10     5     7 ar  
    11     6    35 1   
    12     6    36 1   
    13     7     8 ar  
    14     7     9 1   
    15     8    37 1   
    16     9    10 1   
    17     9    38 1   
    18     9    39 1   
    19    10    11 ar  
    20    10    18 ar  
    21    11    12 ar  
    22    11    40 1   
    23    12    13 1   
    24    12    14 ar  
    25    13    20 1   
    26    14    15 1   
    27    14    16 ar  
    28    16    17 1   
    29    16    18 ar  
    30    17    19 1   
    31    18    41 1   
    32    19    42 1   
    33    19    43 1   
    34    19    44 1   
    35    20    21 1   
    36    20    45 1   
    37    20    46 1   
    38    21    22 1   
    39    21    47 1   
    40    21    48 1   
    41    22    23 1   
    42    22    49 1   
    43    22    50 1   
    44    23    24 1   
    45    23    26 1   
    46    23    51 1   
    47    24    25 1   
    48    24    52 1   
    49    24    53 1   
    50    25    29 1   
    51    25    54 1   
    52    25    55 1   
    53    26    27 1   
    54    26    28 1   
    55    29    30 1   
    56    29    31 1   
@<TRIPOS>SUBSTRUCTURE
     1 BDM         1 TEMP              0 ****  ****    0 ROOT
