@<TRIPOS>MOLECULE
BDN
   17    17     1     0     0
SMALL
No Charge or Current Charge


@<TRIPOS>ATOM
      1 C1          -0.0130    -0.0640     0.2460 ca         1 BDN      -0.197900
      2 C2          -1.1990     0.1540    -0.4980 ca         1 BDN      -0.088500
      3 C3          -1.1650     0.2100    -1.9020 ca         1 BDN      -0.113500
      4 C4           0.0480     0.0340    -2.5870 ca         1 BDN      -0.096000
      5 C5           1.2270    -0.2030    -1.8650 ca         1 BDN      -0.113500
      6 C6           1.1980    -0.2590    -0.4610 ca         1 BDN      -0.088500
      7 C           -0.0530    -0.1630     1.7390 ce         1 BDN       0.662800
      8 N1          -1.1020    -0.4400     2.3940 n2         1 BDN      -0.846100
      9 N2           1.0390     0.2170     2.4250 nv         1 BDN      -1.035200
     10 H2          -2.1520     0.3000     0.0070 ha         1 BDN       0.121000
     11 H3          -2.0810     0.3890    -2.4600 ha         1 BDN       0.116000
     12 H4           0.0720     0.0760    -3.6740 ha         1 BDN       0.115000
     13 H5           2.1660    -0.3510    -2.3940 ha         1 BDN       0.116000
     14 H6           2.1240    -0.4650     0.0740 ha         1 BDN       0.121000
     15 HN1         -1.8170    -0.7450     1.7210 hn         1 BDN       0.388400
     16 HN21         0.8470     0.4480     3.3910 hn         1 BDN       0.470000
     17 HN22         1.6640     0.8450     1.9350 hn         1 BDN       0.470000
@<TRIPOS>BOND
     1     1     2 ar  
     2     1     6 ar  
     3     1     7 1   
     4     2     3 ar  
     5     2    10 1   
     6     3     4 ar  
     7     3    11 1   
     8     4     5 ar  
     9     4    12 1   
    10     5     6 ar  
    11     5    13 1   
    12     6    14 1   
    13     7     8 2   
    14     7     9 1   
    15     8    15 1   
    16     9    16 1   
    17     9    17 1   
@<TRIPOS>SUBSTRUCTURE
     1 BDN         1 TEMP              0 ****  ****    0 ROOT
