@<TRIPOS>MOLECULE
BDN
   17    17     1     0     0
SMALL
abcg2


@<TRIPOS>ATOM
      1 C1          -0.0290    -0.0560     0.2250 ca         1 BDN      -0.197900
      2 C2          -1.1830     0.2120    -0.5090 ca         1 BDN      -0.088500
      3 C3          -1.1400     0.2550    -1.8950 ca         1 BDN      -0.113500
      4 C4           0.0550     0.0210    -2.5630 ca         1 BDN      -0.096000
      5 C5           1.2080    -0.2490    -1.8380 ca         1 BDN      -0.113500
      6 C6           1.1690    -0.2810    -0.4520 ca         1 BDN      -0.088500
      7 C           -0.0970    -0.1190     1.7120 ce         1 BDN       0.662800
      8 N1          -1.0880    -0.5830     2.3740 n2         1 BDN      -0.846100
      9 N2           1.0190     0.3220     2.3570 nv         1 BDN      -1.035200
     10 H2          -2.1170     0.4090     0.0020 ha         1 BDN       0.121000
     11 H3          -2.0410     0.4750    -2.4530 ha         1 BDN       0.116000
     12 H4           0.0870     0.0500    -3.6440 ha         1 BDN       0.115000
     13 H5           2.1410    -0.4390    -2.3530 ha         1 BDN       0.116000
     14 H6           2.0730    -0.5040     0.1020 ha         1 BDN       0.121000
     15 HN1         -1.7880    -0.9680     1.7510 hn         1 BDN       0.388400
     16 HN21         0.9540     0.4040     3.3590 hn         1 BDN       0.470000
     17 HN22         1.5800     1.0320     1.9170 hn         1 BDN       0.470000
@<TRIPOS>BOND
     1     1     2 ar  
     2     1     6 ar  
     3     1     7 1   
     4     2     3 ar  
     5     2    10 1   
     6     3     4 ar  
     7     3    11 1   
     8     4     5 ar  
     9     4    12 1   
    10     5     6 ar  
    11     5    13 1   
    12     6    14 1   
    13     7     8 2   
    14     7     9 1   
    15     8    15 1   
    16     9    16 1   
    17     9    17 1   
@<TRIPOS>SUBSTRUCTURE
     1 BDN         1 TEMP              0 ****  ****    0 ROOT
