@<TRIPOS>MOLECULE
BDO
   40    41     1     0     0
SMALL
bcc


@<TRIPOS>ATOM
      1 C1          -1.3060    -1.6560    -1.0780 c2         1 BDO       0.689800
      2 N1          -2.4850    -1.0150    -1.2800 nu         1 BDO      -0.857200
      3 O1          -1.8870    -0.3770     2.0720 o          1 BDO      -0.584500
      4 C2          -1.9060    -0.6820     0.9030 c          1 BDO       0.707500
      5 N2          -1.0090    -1.5000     0.2830 n          1 BDO      -0.460300
      6 C3          -2.9030    -0.2210    -0.1460 c5         1 BDO       0.160200
      7 N3          -0.6470    -2.2630    -1.9780 n2         1 BDO      -0.878100
      8 C4          -2.7690     1.2980    -0.3560 c3         1 BDO      -0.085400
      9 C5          -4.3280    -0.5690     0.2770 c3         1 BDO      -0.082100
     10 C6           0.1800    -1.9920     0.9430 c3         1 BDO       0.161300
     11 C7           1.1880    -0.8900     1.1550 ca         1 BDO      -0.108300
     12 C8           1.6340    -0.5760     2.4310 ca         1 BDO      -0.099000
     13 C9           2.5340     0.4640     2.6240 ca         1 BDO      -0.120000
     14 C10          2.9880     1.2130     1.5480 ca         1 BDO      -0.113000
     15 C11          2.5340     0.8910     0.2770 ca         1 BDO       0.024400
     16 C12          1.6510    -0.1540     0.0670 ca         1 BDO      -0.113000
     17 C13         -0.9100     1.6540    -2.0960 c3         1 BDO      -0.092100
     18 C14         -1.3900     3.3730    -0.3570 c3         1 BDO      -0.092100
     19 C15         -1.3780     1.8750    -0.6590 c3         1 BDO      -0.062700
     20 H1          -2.7740    -0.7950    -2.2190 hn         1 BDO       0.460800
     21 H2           0.1960    -2.6970    -1.6270 hn         1 BDO       0.399400
     22 H3          -3.4670     1.5890    -1.1490 hc         1 BDO       0.056200
     23 H4          -3.1460     1.7660     0.5580 hc         1 BDO       0.056200
     24 H5          -4.4330    -1.6370     0.4630 hc         1 BDO       0.052700
     25 H6          -4.6080    -0.0290     1.1810 hc         1 BDO       0.052700
     26 H7          -5.0270    -0.2890    -0.5120 hc         1 BDO       0.052700
     27 H8          -0.1030    -2.4370     1.8960 h1         1 BDO       0.067200
     28 H9           0.5990    -2.7980     0.3390 h1         1 BDO       0.067200
     29 H10          1.2700    -1.1410     3.2800 ha         1 BDO       0.141000
     30 H11          2.8770     0.7040     3.6210 ha         1 BDO       0.139000
     31 H12          3.6750     2.0340     1.6960 ha         1 BDO       0.148000
     32 H13          1.3210    -0.3850    -0.9390 ha         1 BDO       0.150000
     33 H14         -1.6270     2.0760    -2.8050 hc         1 BDO       0.036200
     34 H15          0.0470     2.1530    -2.2610 hc         1 BDO       0.036200
     35 H16         -0.7660     0.6060    -2.3540 hc         1 BDO       0.036200
     36 H17         -1.6470     3.5690     0.6850 hc         1 BDO       0.036200
     37 H18         -0.4130     3.8180    -0.5510 hc         1 BDO       0.036200
     38 H19         -2.1210     3.8910    -0.9830 hc         1 BDO       0.036200
     39 H20         -0.6420     1.4210     0.0140 hc         1 BDO       0.055700
     40 CL1          3.0740     1.8230    -1.0800 cl         1 BDO      -0.111400
@<TRIPOS>BOND
     1     1     2 1   
     2     1     5 1   
     3     1     7 2   
     4     2     6 1   
     5     2    20 1   
     6     3     4 2   
     7     4     5 1   
     8     4     6 1   
     9     5    10 1   
    10     6     8 1   
    11     6     9 1   
    12     7    21 1   
    13     8    19 1   
    14     8    22 1   
    15     8    23 1   
    16     9    24 1   
    17     9    25 1   
    18     9    26 1   
    19    10    11 1   
    20    10    27 1   
    21    10    28 1   
    22    11    12 ar  
    23    11    16 ar  
    24    12    13 ar  
    25    12    29 1   
    26    13    14 ar  
    27    13    30 1   
    28    14    15 ar  
    29    14    31 1   
    30    15    16 ar  
    31    15    40 1   
    32    16    32 1   
    33    17    19 1   
    34    17    33 1   
    35    17    34 1   
    36    17    35 1   
    37    18    19 1   
    38    18    36 1   
    39    18    37 1   
    40    18    38 1   
    41    19    39 1   
@<TRIPOS>SUBSTRUCTURE
     1 BDO         1 TEMP              0 ****  ****    0 ROOT
