@<TRIPOS>MOLECULE
BDO
   40    41     1     0     0
SMALL
No Charge or Current Charge


@<TRIPOS>ATOM
      1 C1          -1.4180    -1.7120    -1.0600 c2         1 BDO       0.689800
      2 N1          -2.5240    -0.9840    -1.3750 nu         1 BDO      -0.912400
      3 O1          -1.8260    -0.3670     2.1380 o          1 BDO      -0.509000
      4 C2          -1.9040    -0.6760     0.9540 c          1 BDO       0.565000
      5 N2          -1.0590    -1.5250     0.2660 n          1 BDO      -0.393300
      6 C3          -2.9040    -0.2370    -0.1450 c5         1 BDO       0.160200
      7 N3          -0.7680    -2.3040    -1.9640 n2         1 BDO      -0.878100
      8 C4          -2.8780     1.3130    -0.3650 c3         1 BDO      -0.085400
      9 C5          -4.3390    -0.6680     0.2500 c3         1 BDO      -0.082100
     10 C6           0.1660    -2.0380     0.9040 c3         1 BDO       0.161300
     11 C7           1.2230    -0.9510     1.0650 ca         1 BDO      -0.108300
     12 C8           1.5470    -0.4550     2.3440 ca         1 BDO      -0.081000
     13 C9           2.4930     0.5750     2.4880 ca         1 BDO      -0.102000
     14 C10          3.1180     1.1190     1.3530 ca         1 BDO      -0.095000
     15 C11          2.7980     0.6300     0.0770 ca         1 BDO       0.116000
     16 C12          1.8580    -0.4040    -0.0680 ca         1 BDO      -0.095000
     17 C13         -0.7060     1.7060    -1.7600 c3         1 BDO      -0.092100
     18 C14         -1.6800     3.5700    -0.3520 c3         1 BDO      -0.092100
     19 C15         -1.4960     2.0390    -0.4720 c3         1 BDO      -0.062700
     20 H1          -2.4500    -0.5210    -2.2760 hn         1 BDO       0.516000
     21 H2           0.0610    -2.7300    -1.5360 hn         1 BDO       0.399400
     22 H3          -3.4800     1.5690    -1.2470 hc         1 BDO       0.056200
     23 H4          -3.4060     1.7710     0.4820 hc         1 BDO       0.056200
     24 H5          -4.3990    -1.7530     0.3990 hc         1 BDO       0.052700
     25 H6          -4.6580    -0.1900     1.1840 hc         1 BDO       0.052700
     26 H7          -5.0650    -0.3990    -0.5270 hc         1 BDO       0.052700
     27 H8          -0.0950    -2.4510     1.8880 h1         1 BDO       0.067200
     28 H9           0.5810    -2.8650     0.3140 h1         1 BDO       0.067200
     29 H10          1.0580    -0.8590     3.2290 ha         1 BDO       0.123000
     30 H11          2.7370     0.9560     3.4780 ha         1 BDO       0.121000
     31 H12          3.8460     1.9200     1.4610 ha         1 BDO       0.130000
     32 H13          1.6180    -0.7680    -1.0630 ha         1 BDO       0.132000
     33 H14         -1.3130     1.8940    -2.6540 hc         1 BDO       0.036200
     34 H15          0.1980     2.3240    -1.8280 hc         1 BDO       0.036200
     35 H16         -0.3780     0.6640    -1.7740 hc         1 BDO       0.036200
     36 H17         -2.1720     3.8320     0.5930 hc         1 BDO       0.036200
     37 H18         -0.7100     4.0820    -0.3740 hc         1 BDO       0.036200
     38 H19         -2.2910     3.9570    -1.1760 hc         1 BDO       0.036200
     39 H20         -0.8750     1.7350     0.3800 hc         1 BDO       0.055700
     40 Cl1          3.5690     1.3170    -1.3470 cl         1 BDO      -0.203000
@<TRIPOS>BOND
     1     1     2 1   
     2     1     5 1   
     3     1     7 2   
     4     2     6 1   
     5     2    20 1   
     6     3     4 2   
     7     4     5 1   
     8     4     6 1   
     9     5    10 1   
    10     6     8 1   
    11     6     9 1   
    12     7    21 1   
    13     8    19 1   
    14     8    22 1   
    15     8    23 1   
    16     9    24 1   
    17     9    25 1   
    18     9    26 1   
    19    10    11 1   
    20    10    27 1   
    21    10    28 1   
    22    11    12 ar  
    23    11    16 ar  
    24    12    13 ar  
    25    12    29 1   
    26    13    14 ar  
    27    13    30 1   
    28    14    15 ar  
    29    14    31 1   
    30    15    16 ar  
    31    15    40 1   
    32    16    32 1   
    33    17    19 1   
    34    17    33 1   
    35    17    34 1   
    36    17    35 1   
    37    18    19 1   
    38    18    36 1   
    39    18    37 1   
    40    18    38 1   
    41    19    39 1   
@<TRIPOS>SUBSTRUCTURE
     1 BDO         1 TEMP              0 ****  ****    0 ROOT
