@<TRIPOS>MOLECULE
BDP
   22    22     1     0     0
SMALL
abcg2


@<TRIPOS>ATOM
      1 C1           8.6810   -11.6300     3.3750 c6         1 BDP       0.393300
      2 C2           9.0750   -11.1060     4.7520 c6         1 BDP       0.145300
      3 C3           8.4350   -11.9800     5.8230 c6         1 BDP       0.122300
      4 C4           6.9350   -12.0960     5.6020 c6         1 BDP       0.136300
      5 C5           6.6840   -12.5700     4.1620 c6         1 BDP      -0.006700
      6 C6           5.1800   -12.7270     3.8570 c          1 BDP       0.733000
      7 O2          10.4770   -11.1130     4.8430 oh         1 BDP      -0.723000
      8 O3           8.7600   -11.4120     7.0730 oh         1 BDP      -0.745000
      9 O4           6.4030   -12.9910     6.5400 oh         1 BDP      -0.794000
     10 O5           7.2810   -11.6720     3.2580 os         1 BDP      -0.445000
     11 O6A          4.5220   -13.2660     4.7880 o          1 BDP      -0.700000
     12 O1           9.1760   -10.7730     2.4140 oh         1 BDP      -0.702000
     13 O6B          4.7500   -12.3560     2.7630 o          1 BDP      -0.700000
     14 H1           9.0850   -12.6520     3.2520 h2         1 BDP       0.009700
     15 H2           8.6740   -10.0830     4.8510 h1         1 BDP       0.061700
     16 H3           8.8630   -12.9930     5.7360 h1         1 BDP       0.033700
     17 H4           6.4910   -11.0900     5.7100 h1         1 BDP       0.045700
     18 H5           7.1370   -13.5730     4.0560 h1         1 BDP       0.024700
     19 HO2         10.7130   -10.9010     5.7520 ho         1 BDP       0.507000
     20 HO3          8.5160   -12.0370     7.7630 ho         1 BDP       0.516000
     21 HO4          5.5480   -13.2580     6.1240 ho         1 BDP       0.579000
     22 HO1          9.1670   -11.2160     1.5590 ho         1 BDP       0.507000
@<TRIPOS>BOND
     1     1     2 1   
     2     1    10 1   
     3     1    12 1   
     4     1    14 1   
     5     2     3 1   
     6     2     7 1   
     7     2    15 1   
     8     3     4 1   
     9     3     8 1   
    10     3    16 1   
    11     4     5 1   
    12     4     9 1   
    13     4    17 1   
    14     5     6 1   
    15     5    10 1   
    16     5    18 1   
    17     6    11 1   
    18     6    13 1   
    19     7    19 1   
    20     8    20 1   
    21     9    21 1   
    22    12    22 1   
@<TRIPOS>SUBSTRUCTURE
     1 BDP         1 TEMP              0 ****  ****    0 ROOT
