@<TRIPOS>MOLECULE
BDP
   22    22     1     0     0
SMALL
No Charge or Current Charge


@<TRIPOS>ATOM
      1 C1           8.7990   -11.8050     3.3290 c6         1 BDP       0.393300
      2 C2           9.1770   -11.1380     4.7030 c6         1 BDP       0.145300
      3 C3           8.4670   -11.9250     5.8400 c6         1 BDP       0.122300
      4 C4           6.9300   -11.9780     5.5860 c6         1 BDP       0.136300
      5 C5           6.6500   -12.5850     4.1770 c6         1 BDP      -0.006700
      6 C6           5.1070   -12.6710     3.9080 c          1 BDP       0.733000
      7 O2          10.5990   -11.1060     4.9710 oh         1 BDP      -0.723000
      8 O3           8.7380   -11.3350     7.1250 oh         1 BDP      -0.745000
      9 O4           6.2860   -12.7190     6.6440 oh         1 BDP      -0.794000
     10 O5           7.3760   -11.8140     3.1650 os         1 BDP      -0.445000
     11 O6A          4.6470   -13.8070     3.8990 o          1 BDP      -0.700000
     12 O1           9.2680   -11.0620     2.2190 oh         1 BDP      -0.702000
     13 O6B          4.6240   -11.8230     3.1650 o          1 BDP      -0.700000
     14 H1           9.1840   -12.8350     3.2820 h2         1 BDP       0.009700
     15 H2           8.7780   -10.1130     4.6970 h1         1 BDP       0.061700
     16 H3           8.8470   -12.9580     5.8250 h1         1 BDP       0.033700
     17 H4           6.5490   -10.9460     5.5830 h1         1 BDP       0.045700
     18 H5           7.0390   -13.6140     4.1520 h1         1 BDP       0.024700
     19 HO2         10.6500   -11.0380     5.9550 ho         1 BDP       0.507000
     20 HO3          7.9600   -11.5940     7.6790 ho         1 BDP       0.516000
     21 HO4          6.4250   -13.6830     6.4640 ho         1 BDP       0.579000
     22 HO1          8.4520   -10.9470     1.6850 ho         1 BDP       0.507000
@<TRIPOS>BOND
     1     1     2 1   
     2     1    10 1   
     3     1    12 1   
     4     1    14 1   
     5     2     3 1   
     6     2     7 1   
     7     2    15 1   
     8     3     4 1   
     9     3     8 1   
    10     3    16 1   
    11     4     5 1   
    12     4     9 1   
    13     4    17 1   
    14     5     6 1   
    15     5    10 1   
    16     5    18 1   
    17     6    11 1   
    18     6    13 1   
    19     7    19 1   
    20     8    20 1   
    21     9    21 1   
    22    12    22 1   
@<TRIPOS>SUBSTRUCTURE
     1 BDP         1 TEMP              0 ****  ****    0 ROOT
