@<TRIPOS>MOLECULE
BDQ
   60    62     1     0     0
SMALL
bcc


@<TRIPOS>ATOM
      1 C1          -6.4300    -0.2170    -0.4270 c5         1 BDQ       0.173200
      2 N1          -6.4580     0.4500     0.8510 nu         1 BDQ      -0.879200
      3 O1          -4.8490     0.3210    -2.2110 o          1 BDQ      -0.589500
      4 C2          -5.4840     1.3710     1.0170 c2         1 BDQ       0.703800
      5 N2          -4.7760     1.4010    -0.1960 n          1 BDQ      -0.459300
      6 O2           3.9340    -1.7240     0.0970 o          1 BDQ      -0.614100
      7 C3          -5.2680     0.5030    -1.0910 c          1 BDQ       0.707500
      8 N3          -5.2870     2.0450     2.0760 n2         1 BDQ      -0.886100
      9 C4          -7.7160     0.0330    -1.2160 c3         1 BDQ      -0.092100
     10 N4           2.4150    -0.0490     0.0370 ns         1 BDQ      -0.586900
     11 C5          -6.1550    -1.7270    -0.3440 c3         1 BDQ      -0.076400
     12 N5           4.6350     0.4490    -0.1370 ns         1 BDQ      -0.490100
     13 C6          -4.7990    -2.2160     0.1770 c3         1 BDQ      -0.060700
     14 N6          11.3810     0.1610    -0.0970 n1         1 BDQ      -0.372800
     15 C7          -4.5400    -1.9100     1.6510 c3         1 BDQ      -0.089100
     16 C8          -4.7130    -3.7240    -0.0520 c3         1 BDQ      -0.089100
     17 C9          -3.5870     2.1860    -0.4490 c3         1 BDQ       0.159300
     18 C10         -2.3300     1.3750    -0.2700 ca         1 BDQ      -0.108300
     19 C11         -1.5490     1.0270    -1.3670 ca         1 BDQ      -0.110000
     20 C12         -0.3920     0.2800    -1.2030 ca         1 BDQ      -0.115000
     21 C13          0.0040    -0.1440     0.0620 ca         1 BDQ      -0.112300
     22 C14         -0.7830     0.1970     1.1570 ca         1 BDQ      -0.115000
     23 C15         -1.9370     0.9480     0.9940 ca         1 BDQ      -0.110000
     24 C16          1.2770    -0.9230     0.2460 c3         1 BDQ       0.162300
     25 C17          6.0090     0.3100    -0.1220 ca         1 BDQ       0.120600
     26 C18          6.7600     1.4130    -0.5520 ca         1 BDQ      -0.185000
     27 C19          6.6850    -0.8340     0.3210 ca         1 BDQ      -0.185000
     28 C20          8.1360     1.3830    -0.5480 ca         1 BDQ      -0.056500
     29 C21          8.0660    -0.8610     0.3230 ca         1 BDQ      -0.056500
     30 C22          3.6760    -0.5340     0.0140 c          1 BDQ       0.793100
     31 C23          8.8060     0.2380    -0.1110 ca         1 BDQ      -0.060000
     32 C24         10.2280     0.1950    -0.1030 cg         1 BDQ       0.242800
     33 HN1         -7.0580     0.1760     1.6110 hn         1 BDQ       0.470800
     34 HN3         -4.5130     2.6920     1.9920 hn         1 BDQ       0.397400
     35 H4          -7.9360     1.0980    -1.2820 hc         1 BDQ       0.052700
     36 H4A         -7.6360    -0.3690    -2.2260 hc         1 BDQ       0.052700
     37 H4B         -8.5560    -0.4580    -0.7230 hc         1 BDQ       0.052700
     38 HN4          2.2650     0.9390     0.1680 hn         1 BDQ       0.314500
     39 H5          -6.9550    -2.1730     0.2570 hc         1 BDQ       0.054700
     40 H5A         -6.2920    -2.1180    -1.3560 hc         1 BDQ       0.054700
     41 HN5          4.3050     1.3720    -0.3770 hn         1 BDQ       0.315500
     42 H6          -4.0020    -1.7510    -0.4130 hc         1 BDQ       0.057700
     43 H7          -3.6410    -2.4290     1.9880 hc         1 BDQ       0.034700
     44 H7A         -4.3860    -0.8510     1.8510 hc         1 BDQ       0.034700
     45 H7B         -5.3700    -2.2520     2.2740 hc         1 BDQ       0.034700
     46 H8          -4.8670    -3.9820    -1.1020 hc         1 BDQ       0.034700
     47 H8A         -3.7370    -4.1110     0.2450 hc         1 BDQ       0.034700
     48 H8B         -5.4700    -4.2500     0.5340 hc         1 BDQ       0.034700
     49 H9          -3.6470     2.5880    -1.4600 h1         1 BDQ       0.066200
     50 H9A         -3.5930     3.0440     0.2250 h1         1 BDQ       0.066200
     51 H11         -1.8500     1.3400    -2.3590 ha         1 BDQ       0.141000
     52 H12          0.2040     0.0210    -2.0700 ha         1 BDQ       0.138500
     53 H14         -0.4860    -0.1180     2.1500 ha         1 BDQ       0.138500
     54 H15         -2.5280     1.2030     1.8650 ha         1 BDQ       0.141000
     55 H16          1.3190    -1.7450    -0.4710 h1         1 BDQ       0.061700
     56 H16A         1.2990    -1.3680     1.2450 h1         1 BDQ       0.061700
     57 H18          6.2540     2.3050    -0.9000 ha         1 BDQ       0.151000
     58 H19          6.1470    -1.6980     0.6700 ha         1 BDQ       0.151000
     59 H20          8.6920     2.2450    -0.8890 ha         1 BDQ       0.143500
     60 H21          8.5730    -1.7490     0.6740 ha         1 BDQ       0.143500
@<TRIPOS>BOND
     1     1     2 1   
     2     1     7 1   
     3     1     9 1   
     4     1    11 1   
     5     2     4 1   
     6     2    33 1   
     7     3     7 2   
     8     4     5 1   
     9     4     8 2   
    10     5     7 1   
    11     5    17 1   
    12     6    30 2   
    13     8    34 1   
    14     9    35 1   
    15     9    36 1   
    16     9    37 1   
    17    10    24 1   
    18    10    30 1   
    19    10    38 1   
    20    11    13 1   
    21    11    39 1   
    22    11    40 1   
    23    12    25 1   
    24    12    30 1   
    25    12    41 1   
    26    13    15 1   
    27    13    16 1   
    28    13    42 1   
    29    14    32 3   
    30    15    43 1   
    31    15    44 1   
    32    15    45 1   
    33    16    46 1   
    34    16    47 1   
    35    16    48 1   
    36    17    18 1   
    37    17    49 1   
    38    17    50 1   
    39    18    19 ar  
    40    18    23 ar  
    41    19    20 ar  
    42    19    51 1   
    43    20    21 ar  
    44    20    52 1   
    45    21    22 ar  
    46    21    24 1   
    47    22    23 ar  
    48    22    53 1   
    49    23    54 1   
    50    24    55 1   
    51    24    56 1   
    52    25    26 ar  
    53    25    27 ar  
    54    26    28 ar  
    55    26    57 1   
    56    27    29 ar  
    57    27    58 1   
    58    28    31 ar  
    59    28    59 1   
    60    29    31 ar  
    61    29    60 1   
    62    31    32 1   
@<TRIPOS>SUBSTRUCTURE
     1 BDQ         1 TEMP              0 ****  ****    0 ROOT
