@<TRIPOS>MOLECULE
BDQ
   60    62     1     0     0
SMALL
No Charge or Current Charge


@<TRIPOS>ATOM
      1 C1          -6.5110    -0.1900    -0.5310 c5         1 BDQ       0.173200
      2 N1          -6.4580     0.1490     0.9180 nu         1 BDQ      -0.934400
      3 O1          -5.0200     0.6800    -2.3810 o          1 BDQ      -0.514000
      4 C2          -5.4280     1.0240     1.0710 c2         1 BDQ       0.703800
      5 N2          -4.8260     1.3080    -0.1440 n          1 BDQ      -0.392300
      6 O2           4.0440    -1.1920     1.6890 o          1 BDQ      -0.614100
      7 C3          -5.3800     0.6260    -1.2110 c          1 BDQ       0.565000
      8 N3          -4.9840     1.2760     2.2220 n2         1 BDQ      -0.886100
      9 C4          -7.8860     0.2800    -1.0680 c3         1 BDQ      -0.092100
     10 N4           2.4700     0.1070     0.6940 ns         1 BDQ      -0.519900
     11 C5          -6.3670    -1.7300    -0.7790 c3         1 BDQ      -0.076400
     12 N5           4.6600     0.3430     0.0630 ns         1 BDQ      -0.164000
     13 C6          -4.9510    -2.3850    -0.6800 c3         1 BDQ      -0.060700
     14 N6          11.4430     0.0570    -0.8950 n1         1 BDQ      -0.462000
     15 C7          -4.3080    -2.3030     0.7240 c3         1 BDQ      -0.089100
     16 C8          -5.0070    -3.8580    -1.1520 c3         1 BDQ      -0.089100
     17 C9          -3.6500     2.1810    -0.3170 c3         1 BDQ       0.159300
     18 C10         -2.3520     1.5170     0.1290 ca         1 BDQ      -0.108300
     19 C11         -1.8850     0.3630    -0.5300 ca         1 BDQ      -0.092000
     20 C12         -0.7000    -0.2640    -0.1100 ca         1 BDQ      -0.097000
     21 C13          0.0350     0.2560     0.9710 ca         1 BDQ      -0.112300
     22 C14         -0.4250     1.4160     1.6240 ca         1 BDQ      -0.097000
     23 C15         -1.6120     2.0430     1.2060 ca         1 BDQ      -0.092000
     24 C16          1.3190    -0.4200     1.4210 c3         1 BDQ       0.162300
     25 C17          6.0690     0.2380    -0.0910 ca         1 BDQ       0.028000
     26 C18          6.6860     1.0850    -1.0310 ca         1 BDQ      -0.167000
     27 C19          6.8720    -0.6620     0.6440 ca         1 BDQ      -0.167000
     28 C20          8.0750     1.0400    -1.2400 ca         1 BDQ      -0.038500
     29 C21          8.2630    -0.7100     0.4370 ca         1 BDQ      -0.038500
     30 C22          3.7610    -0.3200     0.8800 c          1 BDQ       0.659100
     31 C23          8.8690     0.1410    -0.5050 ca         1 BDQ      -0.060000
     32 C24         10.2900     0.0910    -0.7160 cg         1 BDQ       0.332000
     33 HN1         -6.4580    -0.5750     1.6300 hn         1 BDQ       0.526000
     34 HN3         -4.1230     1.8220     2.1070 hn         1 BDQ       0.397400
     35 H4          -8.0360     1.3530    -0.8910 hc         1 BDQ       0.052700
     36 H4A         -7.9720     0.1120    -2.1490 hc         1 BDQ       0.052700
     37 H4B         -8.7100    -0.2540    -0.5800 hc         1 BDQ       0.052700
     38 HN4          2.3100     0.8330     0.0070 hn         1 BDQ       0.314500
     39 H5          -7.0530    -2.2700    -0.1140 hc         1 BDQ       0.054700
     40 H5A         -6.7310    -1.9370    -1.7930 hc         1 BDQ       0.054700
     41 HN5          4.2390     1.0350    -0.5420 hn         1 BDQ       0.149000
     42 H6          -4.2830    -1.8650    -1.3770 hc         1 BDQ       0.057700
     43 H7          -3.3850    -2.8950     0.7620 hc         1 BDQ       0.034700
     44 H7A         -4.0340    -1.2750     0.9780 hc         1 BDQ       0.034700
     45 H7B         -4.9900    -2.6880     1.4930 hc         1 BDQ       0.034700
     46 H8          -5.3980    -3.9260    -2.1750 hc         1 BDQ       0.034700
     47 H8A         -4.0060    -4.3060    -1.1480 hc         1 BDQ       0.034700
     48 H8B         -5.6530    -4.4540    -0.4970 hc         1 BDQ       0.034700
     49 H9          -3.5560     2.4750    -1.3700 h1         1 BDQ       0.066200
     50 H9A         -3.8120     3.1050     0.2540 h1         1 BDQ       0.066200
     51 H11         -2.4410    -0.0510    -1.3680 ha         1 BDQ       0.123000
     52 H12         -0.3530    -1.1560    -0.6280 ha         1 BDQ       0.120500
     53 H14          0.1370     1.8320     2.4570 ha         1 BDQ       0.120500
     54 H15         -1.9520     2.9380     1.7230 ha         1 BDQ       0.123000
     55 H16          1.2500    -1.5030     1.2490 h1         1 BDQ       0.061700
     56 H16A         1.4700    -0.2580     2.4970 h1         1 BDQ       0.061700
     57 H18          6.0850     1.7860    -1.6070 ha         1 BDQ       0.133000
     58 H19          6.4410    -1.3340     1.3790 ha         1 BDQ       0.133000
     59 H20          8.5320     1.7030    -1.9720 ha         1 BDQ       0.125500
     60 H21          8.8670    -1.4100     1.0120 ha         1 BDQ       0.125500
@<TRIPOS>BOND
     1     1     2 1   
     2     1     7 1   
     3     1     9 1   
     4     1    11 1   
     5     2     4 1   
     6     2    33 1   
     7     3     7 2   
     8     4     5 1   
     9     4     8 2   
    10     5     7 1   
    11     5    17 1   
    12     6    30 2   
    13     8    34 1   
    14     9    35 1   
    15     9    36 1   
    16     9    37 1   
    17    10    24 1   
    18    10    30 1   
    19    10    38 1   
    20    11    13 1   
    21    11    39 1   
    22    11    40 1   
    23    12    25 1   
    24    12    30 1   
    25    12    41 1   
    26    13    15 1   
    27    13    16 1   
    28    13    42 1   
    29    14    32 3   
    30    15    43 1   
    31    15    44 1   
    32    15    45 1   
    33    16    46 1   
    34    16    47 1   
    35    16    48 1   
    36    17    18 1   
    37    17    49 1   
    38    17    50 1   
    39    18    19 ar  
    40    18    23 ar  
    41    19    20 ar  
    42    19    51 1   
    43    20    21 ar  
    44    20    52 1   
    45    21    22 ar  
    46    21    24 1   
    47    22    23 ar  
    48    22    53 1   
    49    23    54 1   
    50    24    55 1   
    51    24    56 1   
    52    25    26 ar  
    53    25    27 ar  
    54    26    28 ar  
    55    26    57 1   
    56    27    29 ar  
    57    27    58 1   
    58    28    31 ar  
    59    28    59 1   
    60    29    31 ar  
    61    29    60 1   
    62    31    32 1   
@<TRIPOS>SUBSTRUCTURE
     1 BDQ         1 TEMP              0 ****  ****    0 ROOT
