@<TRIPOS>MOLECULE
BDR
   20    20     1     0     0
SMALL
abcg2


@<TRIPOS>ATOM
      1 C4          -4.3650    -2.6260     4.5930 c5         1 BDR       0.131300
      2 O4          -3.1790    -1.9930     4.1560 os         1 BDR      -0.471000
      3 C1          -2.0540    -2.8280     4.2890 c5         1 BDR       0.395300
      4 O1          -1.0850    -2.2330     5.0770 oh         1 BDR      -0.718000
      5 C2          -2.5700    -4.0980     4.9650 c5         1 BDR       0.082300
      6 O2          -1.8390    -5.2130     4.5150 oh         1 BDR      -0.708000
      7 C3          -4.0560    -4.1220     4.6200 c5         1 BDR       0.116300
      8 O3          -4.3040    -4.6890     3.3640 oh         1 BDR      -0.713000
      9 C5          -4.7930    -2.0660     5.9510 c3         1 BDR       0.132600
     10 O5          -6.0610    -2.5410     6.3390 oh         1 BDR      -0.714000
     11 H4          -5.1690    -2.4250     3.8730 h1         1 BDR       0.083700
     12 H1          -1.6590    -3.0430     3.2860 h2         1 BDR       0.062700
     13 HO1         -0.4360    -1.7940     4.5180 ho         1 BDR       0.523000
     14 H2          -2.4620    -3.9700     6.0500 h1         1 BDR       0.069700
     15 HO2         -2.0460    -5.9540     5.0950 ho         1 BDR       0.515000
     16 H3          -4.6190    -4.6380     5.4090 h1         1 BDR       0.072700
     17 HO3         -3.5920    -5.3020     3.1480 ho         1 BDR       0.522000
     18 H51         -4.7540    -0.9700     5.9020 h1         1 BDR       0.057200
     19 H52         -4.0970    -2.3720     6.7370 h1         1 BDR       0.057200
     20 HO5         -6.7110    -2.1920     5.7200 ho         1 BDR       0.502000
@<TRIPOS>BOND
     1     1     2 1   
     2     1     7 1   
     3     1     9 1   
     4     1    11 1   
     5     2     3 1   
     6     3     4 1   
     7     3     5 1   
     8     3    12 1   
     9     4    13 1   
    10     5     6 1   
    11     5     7 1   
    12     5    14 1   
    13     6    15 1   
    14     7     8 1   
    15     7    16 1   
    16     8    17 1   
    17     9    10 1   
    18     9    18 1   
    19     9    19 1   
    20    10    20 1   
@<TRIPOS>SUBSTRUCTURE
     1 BDR         1 TEMP              0 ****  ****    0 ROOT
