@<TRIPOS>MOLECULE
BDR
   20    20     1     0     0
SMALL
No Charge or Current Charge


@<TRIPOS>ATOM
      1 C4          -4.3690    -2.6460     4.4720 c5         1 BDR       0.131300
      2 O4          -3.1280    -2.2170     3.8600 os         1 BDR      -0.471000
      3 C1          -2.0510    -2.9860     4.4200 c5         1 BDR       0.395300
      4 O1          -1.4540    -2.2290     5.4570 oh         1 BDR      -0.718000
      5 C2          -2.6980    -4.3320     4.9500 c5         1 BDR       0.082300
      6 O2          -2.1330    -5.5370     4.3740 oh         1 BDR      -0.708000
      7 C3          -4.2010    -4.1960     4.5370 c5         1 BDR       0.116300
      8 O3          -4.3850    -4.8320     3.2680 oh         1 BDR      -0.713000
      9 C5          -4.5910    -1.9490     5.8530 c3         1 BDR       0.132600
     10 O5          -5.8870    -2.2710     6.3970 oh         1 BDR      -0.714000
     11 H4          -5.2000    -2.3640     3.8110 h1         1 BDR       0.083700
     12 H1          -1.3100    -3.1940     3.6350 h2         1 BDR       0.062700
     13 HO1         -1.2750    -1.3520     5.0500 ho         1 BDR       0.523000
     14 H2          -2.6230    -4.3680     6.0470 h1         1 BDR       0.069700
     15 HO2         -1.2510    -5.6800     4.7980 ho         1 BDR       0.515000
     16 H3          -4.8650    -4.6420     5.2910 h1         1 BDR       0.072700
     17 HO3         -3.5720    -5.4020     3.2170 ho         1 BDR       0.522000
     18 H51         -4.4920    -0.8630     5.7170 h1         1 BDR       0.057200
     19 H52         -3.8080    -2.2630     6.5550 h1         1 BDR       0.057200
     20 HO5         -6.5570    -1.7460     5.8980 ho         1 BDR       0.502000
@<TRIPOS>BOND
     1     1     2 1   
     2     1     7 1   
     3     1     9 1   
     4     1    11 1   
     5     2     3 1   
     6     3     4 1   
     7     3     5 1   
     8     3    12 1   
     9     4    13 1   
    10     5     6 1   
    11     5     7 1   
    12     5    14 1   
    13     6    15 1   
    14     7     8 1   
    15     7    16 1   
    16     8    17 1   
    17     9    10 1   
    18     9    18 1   
    19     9    19 1   
    20    10    20 1   
@<TRIPOS>SUBSTRUCTURE
     1 BDR         1 TEMP              0 ****  ****    0 ROOT
