@<TRIPOS>MOLECULE
BDS
   44    47     1     0     0
SMALL
No Charge or Current Charge


@<TRIPOS>ATOM
      1 C1           0.5880    -0.0290     0.8010 c3         1 BDS      -0.167200
      2 C2           1.9140     0.5370     1.3790 c          1 BDS       0.734000
      3 O3           2.1840     1.7150     1.1860 o          1 BDS      -0.743000
      4 O4           2.6330    -0.2150     2.0220 o          1 BDS      -0.743000
      5 C5          -0.6310     0.6940     1.4450 c3         1 BDS      -0.024100
      6 C6          -0.6270     0.6240     2.9680 ca         1 BDS      -0.010800
      7 C7          -0.2900     1.7660     3.7390 ca         1 BDS      -0.088000
      8 C8          -0.2920     1.7080     5.1490 ca         1 BDS      -0.101000
      9 C9          -0.6330     0.4940     5.7570 ca         1 BDS       0.006100
     10 O10         -0.6970     0.2620     7.0920 os         1 BDS      -0.369100
     11 C11         -1.0320    -1.1700     7.1580 c5         1 BDS       0.379100
     12 O12         -1.2710    -1.6770     5.7980 os         1 BDS      -0.363100
     13 C13         -0.9590    -0.6100     5.0200 ca         1 BDS       0.028600
     14 C14         -0.9700    -0.5840     3.6200 ca         1 BDS      -0.092000
     15 C15          0.5950     0.0170    -0.7720 c3         1 BDS      -0.167200
     16 C16          1.9040    -0.5980    -1.3400 c          1 BDS       0.734000
     17 O17          2.1290    -1.7840    -1.1450 o          1 BDS      -0.743000
     18 O18          2.6550     0.1270    -1.9770 o          1 BDS      -0.743000
     19 C19         -0.6440    -0.6620    -1.4260 c3         1 BDS      -0.024100
     20 C20         -0.6260    -0.5920    -2.9490 ca         1 BDS      -0.010800
     21 C21         -0.3240    -1.7460    -3.7170 ca         1 BDS      -0.088000
     22 C22         -0.3130    -1.6880    -5.1280 ca         1 BDS      -0.101000
     23 C23         -0.6050    -0.4620    -5.7370 ca         1 BDS       0.006100
     24 O24         -0.6490    -0.2290    -7.0740 os         1 BDS      -0.369100
     25 C25         -0.9320     1.2140    -7.1420 c5         1 BDS       0.379100
     26 O26         -1.1630     1.7310    -5.7830 os         1 BDS      -0.363100
     27 C27         -0.8960     0.6520    -5.0030 ca         1 BDS       0.028600
     28 C28         -0.9190     0.6270    -3.6030 ca         1 BDS      -0.092000
     29 HC11         0.5310    -1.0850     1.0940 hc         1 BDS       0.044200
     30 HC51        -0.6520     1.7390     1.1100 hc         1 BDS       0.026700
     31 HC52        -1.5630     0.2440     1.0880 hc         1 BDS       0.026700
     32 HC71        -0.0250     2.6970     3.2420 ha         1 BDS       0.147000
     33 HC81        -0.0370     2.5790     5.7470 ha         1 BDS       0.109000
     34 H111        -0.1890    -1.7140     7.6000 h2         1 BDS       0.037200
     35 H112        -1.9340    -1.3090     7.7670 h2         1 BDS       0.037200
     36 H141        -1.2370    -1.4720     3.0530 ha         1 BDS       0.126000
     37 H151         0.5790     1.0740    -1.0650 hc         1 BDS       0.044200
     38 H191        -0.7060    -1.7050    -1.0920 hc         1 BDS       0.026700
     39 H192        -1.5620    -0.1780    -1.0760 hc         1 BDS       0.026700
     40 H211        -0.0970    -2.6860    -3.2190 ha         1 BDS       0.147000
     41 H221        -0.0850    -2.5680    -5.7240 ha         1 BDS       0.109000
     42 H251        -0.0660     1.7280    -7.5770 h2         1 BDS       0.037200
     43 H252        -1.8220     1.3860    -7.7580 h2         1 BDS       0.037200
     44 H281        -1.1580     1.5240    -3.0380 ha         1 BDS       0.126000
@<TRIPOS>BOND
     1     1     2 1   
     2     1     5 1   
     3     1    15 1   
     4     1    29 1   
     5     2     3 1   
     6     2     4 1   
     7     5     6 1   
     8     5    30 1   
     9     5    31 1   
    10     6     7 ar  
    11     6    14 ar  
    12     7     8 ar  
    13     7    32 1   
    14     8     9 ar  
    15     8    33 1   
    16     9    10 1   
    17     9    13 ar  
    18    10    11 1   
    19    11    12 1   
    20    11    34 1   
    21    11    35 1   
    22    12    13 1   
    23    13    14 ar  
    24    14    36 1   
    25    15    16 1   
    26    15    19 1   
    27    15    37 1   
    28    16    17 1   
    29    16    18 1   
    30    19    20 1   
    31    19    38 1   
    32    19    39 1   
    33    20    21 ar  
    34    20    28 ar  
    35    21    22 ar  
    36    21    40 1   
    37    22    23 ar  
    38    22    41 1   
    39    23    24 1   
    40    23    27 ar  
    41    24    25 1   
    42    25    26 1   
    43    25    42 1   
    44    25    43 1   
    45    26    27 1   
    46    27    28 ar  
    47    28    44 1   
@<TRIPOS>SUBSTRUCTURE
     1 BDS         1 TEMP              0 ****  ****    0 ROOT
