@<TRIPOS>MOLECULE
BDS
   44    47     1     0     0
SMALL
abcg2


@<TRIPOS>ATOM
      1 C1           0.6650    -0.0140     0.7860 c3         1 BDS      -0.167200
      2 C2           1.9840     0.5930     1.3100 c          1 BDS       0.734000
      3 O3           2.1300     1.8230     1.1480 o          1 BDS      -0.743000
      4 O4           2.8070    -0.1800     1.8400 o          1 BDS      -0.743000
      5 C5          -0.5290     0.7550     1.3690 c3         1 BDS      -0.024100
      6 C6          -0.5950     0.6760     2.8700 ca         1 BDS      -0.010800
      7 C7          -0.1040     1.7030     3.6670 ca         1 BDS      -0.088000
      8 C8          -0.1290     1.6410     5.0670 ca         1 BDS      -0.101000
      9 C9          -0.6600     0.5080     5.6290 ca         1 BDS       0.006100
     10 O10         -0.8370     0.2020     6.9420 os         1 BDS      -0.369100
     11 C11         -1.2310    -1.1610     6.9690 c5         1 BDS       0.379100
     12 O12         -1.6440    -1.5010     5.6530 os         1 BDS      -0.363100
     13 C13         -1.1510    -0.5240     4.8470 ca         1 BDS       0.028600
     14 C14         -1.1350    -0.4720     3.4760 ca         1 BDS      -0.092000
     15 C15          0.6690    -0.0030    -0.7540 c3         1 BDS      -0.167200
     16 C16          1.9630    -0.6610    -1.2760 c          1 BDS       0.734000
     17 O17          2.0660    -1.8940    -1.1010 o          1 BDS      -0.743000
     18 O18          2.8080     0.0750    -1.8230 o          1 BDS      -0.743000
     19 C19         -0.5500    -0.7240    -1.3470 c3         1 BDS      -0.024100
     20 C20         -0.5980    -0.6430    -2.8480 ca         1 BDS      -0.010800
     21 C21         -0.1350    -1.6870    -3.6400 ca         1 BDS      -0.088000
     22 C22         -0.1410    -1.6250    -5.0400 ca         1 BDS      -0.101000
     23 C23         -0.6250    -0.4730    -5.6080 ca         1 BDS       0.006100
     24 O24         -0.7730    -0.1610    -6.9230 os         1 BDS      -0.369100
     25 C25         -1.1330     1.2120    -6.9570 c5         1 BDS       0.379100
     26 O26         -1.5370     1.5690    -5.6420 os         1 BDS      -0.363100
     27 C27         -1.0880     0.5760    -4.8310 ca         1 BDS       0.028600
     28 C28         -1.0910     0.5230    -3.4600 ca         1 BDS      -0.092000
     29 HC11         0.6010    -1.0570     1.1140 hc         1 BDS       0.044200
     30 HC51        -0.4600     1.7980     1.0560 hc         1 BDS       0.026700
     31 HC52        -1.4640     0.3650     0.9600 hc         1 BDS       0.026700
     32 HC71         0.3230     2.5750     3.1910 ha         1 BDS       0.147000
     33 HC81         0.2510     2.4550     5.6700 ha         1 BDS       0.109000
     34 H111        -0.3830    -1.7900     7.2660 h2         1 BDS       0.037200
     35 H112        -2.0620    -1.2930     7.6620 h2         1 BDS       0.037200
     36 H141        -1.5330    -1.2840     2.8790 ha         1 BDS       0.126000
     37 H151         0.6460     1.0420    -1.0800 hc         1 BDS       0.044200
     38 H191        -0.5260    -1.7700    -1.0340 hc         1 BDS       0.026700
     39 H192        -1.4730    -0.2970    -0.9460 hc         1 BDS       0.026700
     40 H211         0.2560    -2.5730    -3.1590 ha         1 BDS       0.147000
     41 H221         0.2170    -2.4510    -5.6390 ha         1 BDS       0.109000
     42 H251        -0.2690     1.8170    -7.2560 h2         1 BDS       0.037200
     43 H252        -1.9600     1.3610    -7.6510 h2         1 BDS       0.037200
     44 H281        -1.4680     1.3480    -2.8680 ha         1 BDS       0.126000
@<TRIPOS>BOND
     1     1     2 1   
     2     1     5 1   
     3     1    15 1   
     4     1    29 1   
     5     2     3 1   
     6     2     4 1   
     7     5     6 1   
     8     5    30 1   
     9     5    31 1   
    10     6     7 ar  
    11     6    14 ar  
    12     7     8 ar  
    13     7    32 1   
    14     8     9 ar  
    15     8    33 1   
    16     9    10 1   
    17     9    13 ar  
    18    10    11 1   
    19    11    12 1   
    20    11    34 1   
    21    11    35 1   
    22    12    13 1   
    23    13    14 ar  
    24    14    36 1   
    25    15    16 1   
    26    15    19 1   
    27    15    37 1   
    28    16    17 1   
    29    16    18 1   
    30    19    20 1   
    31    19    38 1   
    32    19    39 1   
    33    20    21 ar  
    34    20    28 ar  
    35    21    22 ar  
    36    21    40 1   
    37    22    23 ar  
    38    22    41 1   
    39    23    24 1   
    40    23    27 ar  
    41    24    25 1   
    42    25    26 1   
    43    25    42 1   
    44    25    43 1   
    45    26    27 1   
    46    27    28 ar  
    47    28    44 1   
@<TRIPOS>SUBSTRUCTURE
     1 BDS         1 TEMP              0 ****  ****    0 ROOT
