@<TRIPOS>MOLECULE
BDT
   51    54     1     0     0
SMALL
No Charge or Current Charge


@<TRIPOS>ATOM
      1 C1           2.7820    -1.5030     0.7080 c6         1 BDT      -0.064400
      2 C2           3.2720    -1.6450    -0.7540 c6         1 BDT      -0.184400
      3 C3           3.9040    -0.3470    -1.2630 c          1 BDT       0.575100
      4 O3           5.0350    -0.3220    -1.7320 o          1 BDT      -0.524100
      5 C4           3.1190     0.9380    -0.9820 c6         1 BDT      -0.184400
      6 C5           2.5790     1.0280     0.4850 c6         1 BDT      -0.042700
      7 C6           1.6930     2.2970     0.6620 c6         1 BDT      -0.069400
      8 C7           0.3230     2.1700    -0.0500 c6         1 BDT      -0.071400
      9 C8          -0.4430     0.8910     0.3870 c6         1 BDT      -0.044700
     10 C9           0.4430    -0.4010     0.2060 c6         1 BDT      -0.044700
     11 C10          1.8350    -0.2770     0.9670 c6         1 BDT      -0.034000
     12 C11         -0.3690    -1.6990     0.5610 c6         1 BDT      -0.071400
     13 C12         -1.7180    -1.7910    -0.2120 c6         1 BDT      -0.059400
     14 C13         -2.5960    -0.5240     0.0050 c5         1 BDT      -0.038000
     15 C14         -1.7650     0.7250    -0.4170 c5         1 BDT      -0.066700
     16 C15         -2.8250     1.8610    -0.3550 c5         1 BDT      -0.066400
     17 C16         -4.1250     1.1640    -0.8890 c5         1 BDT      -0.116400
     18 C17         -3.7460    -0.3480    -1.0440 c5         1 BDT       0.170300
     19 O17         -4.8610    -1.2090    -0.8170 oh         1 BDT      -0.651000
     20 C18         -3.1140    -0.5220     1.4890 c3         1 BDT      -0.072100
     21 C19          1.6250    -0.2170     2.5230 c3         1 BDT      -0.085100
     22 H1           2.3130    -2.4410     1.0330 hc         1 BDT       0.046200
     23 H1A          3.6730    -1.4030     1.3450 hc         1 BDT       0.046200
     24 H2           3.9710    -2.4830    -0.8770 hc         1 BDT       0.066700
     25 H2A          2.3800    -1.8290    -1.3650 hc         1 BDT       0.066700
     26 H4           3.7250     1.8120    -1.2530 hc         1 BDT       0.066200
     27 H4A          2.2510     0.8930    -1.6480 hc         1 BDT       0.066200
     28 H5           3.4620     1.1640     1.1260 hc         1 BDT       0.050700
     29 H6           1.5320     2.4980     1.7300 hc         1 BDT       0.042700
     30 H6A          2.2240     3.1780     0.2780 hc         1 BDT       0.042700
     31 H7          -0.2780     3.0600     0.1810 hc         1 BDT       0.039200
     32 H7A          0.4610     2.1770    -1.1390 hc         1 BDT       0.039200
     33 H8          -0.7080     1.0090     1.4440 hc         1 BDT       0.053700
     34 H9           0.6520    -0.4760    -0.8680 hc         1 BDT       0.040700
     35 H11          0.2170    -2.5920     0.3090 hc         1 BDT       0.040700
     36 H11A        -0.5570    -1.7590     1.6390 hc         1 BDT       0.040700
     37 H12         -1.5060    -1.9140    -1.2830 hc         1 BDT       0.044200
     38 H12A        -2.2670    -2.6930     0.0930 hc         1 BDT       0.044200
     39 H14         -1.4290     0.6190    -1.4580 hc         1 BDT       0.042700
     40 H15         -2.9600     2.2370     0.6660 hc         1 BDT       0.044200
     41 H15A        -2.5390     2.7200    -0.9730 hc         1 BDT       0.044200
     42 H16         -4.9560     1.3100    -0.1890 hc         1 BDT       0.046700
     43 H16A        -4.4470     1.5880    -1.8480 hc         1 BDT       0.046700
     44 H17         -3.3540    -0.5230    -2.0570 h1         1 BDT       0.026700
     45 HO17        -5.5340    -0.9800    -1.4940 ho         1 BDT       0.441000
     46 H18         -2.3030    -0.4360     2.2200 hc         1 BDT       0.035700
     47 H18A        -3.8110     0.2970     1.6980 hc         1 BDT       0.035700
     48 H18B        -3.6500    -1.4520     1.7160 hc         1 BDT       0.035700
     49 H19          2.5740    -0.0380     3.0430 hc         1 BDT       0.035700
     50 H19A         0.9410     0.5760     2.8410 hc         1 BDT       0.035700
     51 H19B         1.2300    -1.1600     2.9170 hc         1 BDT       0.035700
@<TRIPOS>BOND
     1     1     2 1   
     2     1    11 1   
     3     1    22 1   
     4     1    23 1   
     5     2     3 1   
     6     2    24 1   
     7     2    25 1   
     8     3     4 2   
     9     3     5 1   
    10     5     6 1   
    11     5    26 1   
    12     5    27 1   
    13     6     7 1   
    14     6    11 1   
    15     6    28 1   
    16     7     8 1   
    17     7    29 1   
    18     7    30 1   
    19     8     9 1   
    20     8    31 1   
    21     8    32 1   
    22     9    10 1   
    23     9    15 1   
    24     9    33 1   
    25    10    11 1   
    26    10    12 1   
    27    10    34 1   
    28    11    21 1   
    29    12    13 1   
    30    12    35 1   
    31    12    36 1   
    32    13    14 1   
    33    13    37 1   
    34    13    38 1   
    35    14    15 1   
    36    14    18 1   
    37    14    20 1   
    38    15    16 1   
    39    15    39 1   
    40    16    17 1   
    41    16    40 1   
    42    16    41 1   
    43    17    18 1   
    44    17    42 1   
    45    17    43 1   
    46    18    19 1   
    47    18    44 1   
    48    19    45 1   
    49    20    46 1   
    50    20    47 1   
    51    20    48 1   
    52    21    49 1   
    53    21    50 1   
    54    21    51 1   
@<TRIPOS>SUBSTRUCTURE
     1 BDT         1 TEMP              0 ****  ****    0 ROOT
