@<TRIPOS>MOLECULE
BDT
   51    54     1     0     0
SMALL
bcc


@<TRIPOS>ATOM
      1 C1           2.6920    -1.4680     0.7180 c6         1 BDT      -0.064400
      2 C2           3.1680    -1.6110    -0.7270 c6         1 BDT      -0.184400
      3 C3           3.8450    -0.3480    -1.1820 c          1 BDT       0.575100
      4 O3           4.9280    -0.3440    -1.7280 o          1 BDT      -0.524100
      5 C4           3.0690     0.9120    -0.9150 c6         1 BDT      -0.184400
      6 C5           2.5240     1.0100     0.5210 c6         1 BDT      -0.042700
      7 C6           1.6650     2.2640     0.6760 c6         1 BDT      -0.069400
      8 C7           0.3270     2.1400    -0.0430 c6         1 BDT      -0.071400
      9 C8          -0.4380     0.8860     0.3760 c6         1 BDT      -0.044700
     10 C9           0.4340    -0.3730     0.1860 c6         1 BDT      -0.044700
     11 C10          1.7700    -0.2650     0.9670 c6         1 BDT      -0.034000
     12 C11         -0.3350    -1.6700     0.4700 c6         1 BDT      -0.071400
     13 C12         -1.6720    -1.7580    -0.2710 c6         1 BDT      -0.059400
     14 C13         -2.5290    -0.5250    -0.0170 c5         1 BDT      -0.038000
     15 C14         -1.7220     0.7170    -0.4150 c5         1 BDT      -0.066700
     16 C15         -2.7570     1.8440    -0.4080 c5         1 BDT      -0.066400
     17 C16         -4.0610     1.1520    -0.8660 c5         1 BDT      -0.116400
     18 C17         -3.7260    -0.3540    -0.9550 c5         1 BDT       0.147100
     19 O17         -4.7870    -1.2170    -0.6230 oh         1 BDT      -0.588800
     20 C18         -2.9960    -0.4890     1.4420 c3         1 BDT      -0.072100
     21 C19          1.5310    -0.2130     2.4820 c3         1 BDT      -0.085100
     22 H1           2.2110    -2.3950     1.0340 hc         1 BDT       0.046200
     23 H1A          3.5710    -1.3600     1.3640 hc         1 BDT       0.046200
     24 H2           3.8490    -2.4570    -0.8320 hc         1 BDT       0.066700
     25 H2A          2.3160    -1.7990    -1.3900 hc         1 BDT       0.066700
     26 H4           3.6960     1.7780    -1.1360 hc         1 BDT       0.066200
     27 H4A          2.2450     0.9260    -1.6370 hc         1 BDT       0.066200
     28 H5           3.3950     1.1110     1.1820 hc         1 BDT       0.050700
     29 H6           1.4900     2.4530     1.7390 hc         1 BDT       0.042700
     30 H6A          2.2130     3.1330     0.3030 hc         1 BDT       0.042700
     31 H7          -0.2780     3.0290     0.1560 hc         1 BDT       0.039200
     32 H7A          0.4800     2.1210    -1.1280 hc         1 BDT       0.039200
     33 H8          -0.6950     0.9950     1.4370 hc         1 BDT       0.053700
     34 H9           0.6750    -0.3970    -0.8870 hc         1 BDT       0.040700
     35 H11          0.2750    -2.5260     0.1710 hc         1 BDT       0.040700
     36 H11A        -0.5010    -1.7830     1.5450 hc         1 BDT       0.040700
     37 H12         -1.4840    -1.8460    -1.3480 hc         1 BDT       0.044200
     38 H12A        -2.1930    -2.6710     0.0280 hc         1 BDT       0.044200
     39 H14         -1.4220     0.5660    -1.4640 hc         1 BDT       0.042700
     40 H15         -2.8680     2.2600     0.5970 hc         1 BDT       0.044200
     41 H15A        -2.4710     2.6720    -1.0580 hc         1 BDT       0.044200
     42 H16         -4.8670     1.3100    -0.1460 hc         1 BDT       0.046700
     43 H16A        -4.4140     1.5350    -1.8250 hc         1 BDT       0.046700
     44 H17         -3.3730    -0.5710    -1.9760 h1         1 BDT       0.026700
     45 HO17        -5.5080    -1.0580    -1.2400 ho         1 BDT       0.402000
     46 H18         -2.1630    -0.3830     2.1370 hc         1 BDT       0.035700
     47 H18A        -3.6880     0.3300     1.6440 hc         1 BDT       0.035700
     48 H18B        -3.5100    -1.4150     1.7030 hc         1 BDT       0.035700
     49 H19          2.4670     0.0020     3.0020 hc         1 BDT       0.035700
     50 H19A         0.8110     0.5470     2.7800 hc         1 BDT       0.035700
     51 H19B         1.1670    -1.1690     2.8610 hc         1 BDT       0.035700
@<TRIPOS>BOND
     1     1     2 1   
     2     1    11 1   
     3     1    22 1   
     4     1    23 1   
     5     2     3 1   
     6     2    24 1   
     7     2    25 1   
     8     3     4 2   
     9     3     5 1   
    10     5     6 1   
    11     5    26 1   
    12     5    27 1   
    13     6     7 1   
    14     6    11 1   
    15     6    28 1   
    16     7     8 1   
    17     7    29 1   
    18     7    30 1   
    19     8     9 1   
    20     8    31 1   
    21     8    32 1   
    22     9    10 1   
    23     9    15 1   
    24     9    33 1   
    25    10    11 1   
    26    10    12 1   
    27    10    34 1   
    28    11    21 1   
    29    12    13 1   
    30    12    35 1   
    31    12    36 1   
    32    13    14 1   
    33    13    37 1   
    34    13    38 1   
    35    14    15 1   
    36    14    18 1   
    37    14    20 1   
    38    15    16 1   
    39    15    39 1   
    40    16    17 1   
    41    16    40 1   
    42    16    41 1   
    43    17    18 1   
    44    17    42 1   
    45    17    43 1   
    46    18    19 1   
    47    18    44 1   
    48    19    45 1   
    49    20    46 1   
    50    20    47 1   
    51    20    48 1   
    52    21    49 1   
    53    21    50 1   
    54    21    51 1   
@<TRIPOS>SUBSTRUCTURE
     1 BDT         1 TEMP              0 ****  ****    0 ROOT
