@<TRIPOS>MOLECULE
BDU
   65    67     1     0     0
SMALL
bcc


@<TRIPOS>ATOM
      1 CX1          1.2410     0.7630     0.0390 c          1 BDU       0.901600
      2 O1A          2.2620     0.0740    -0.1830 o          1 BDU      -0.813800
      3 O1B          0.0750     0.4670    -0.2530 o          1 BDU      -0.813800
      4 CX2          1.4420     2.1770     0.6870 c6         1 BDU       0.212600
      5 OX2          1.4140     3.1540    -0.3070 os         1 BDU      -0.407600
      6 CO2          2.2640     2.9700    -1.4240 c3         1 BDU       0.146700
      7 CX3          0.3470     2.5520     1.6840 c6         1 BDU      -0.110400
      8 CX4          0.4720     1.7900     3.0000 c6         1 BDU       0.128100
      9 OX4         -0.4920     2.1990     3.9400 oh         1 BDU      -0.600800
     10 CX5          1.9010     1.8990     3.5470 c6         1 BDU       0.040700
     11 NX5          2.0660     1.0960     4.7310 ns         1 BDU      -0.551900
     12 C10          2.1250     1.5880     5.9810 c          1 BDU       0.677100
     13 O10          2.0950     2.7840     6.2390 o          1 BDU      -0.621100
     14 C11          2.2410     0.5490     7.0690 c3         1 BDU      -0.180100
     15 CX6          2.8530     1.4420     2.4410 c6         1 BDU       0.162100
     16 OX6          2.6910     2.2820     1.3210 os         1 BDU      -0.433600
     17 CX7          4.3240     1.4150     2.8180 c3         1 BDU       0.134100
     18 OX7          4.7010     2.6420     3.3920 oh         1 BDU      -0.594800
     19 CX8          5.1890     1.0970     1.5820 c3         1 BDU       0.124100
     20 OX8          4.7740    -0.0840     0.9450 oh         1 BDU      -0.657800
     21 CX9          6.6660     0.9550     1.9370 c3         1 BDU       0.093000
     22 NX6          6.9560    -0.0600     2.9270 ns         1 BDU      -0.545900
     23 C12          7.0520     0.1930     4.2380 c          1 BDU       0.673700
     24 O12          6.9010     1.3180     4.7150 o          1 BDU      -0.634100
     25 C1G          7.3730    -0.9640     5.1250 ca         1 BDU      -0.138600
     26 CD1          7.9410    -0.7060     6.3710 ca         1 BDU      -0.090500
     27 CE1          8.2550    -1.7420     7.2320 ca         1 BDU      -0.132000
     28 CD2          7.0990    -2.2850     4.7780 ca         1 BDU      -0.090500
     29 CE2          7.4050    -3.3200     5.6460 ca         1 BDU      -0.132000
     30 C1Z          7.9940    -3.0690     6.8850 cp         1 BDU      -0.023000
     31 C2G          8.3320    -4.1760     7.8010 cp         1 BDU      -0.031000
     32 CY1          9.4730    -4.1130     8.6050 ca         1 BDU      -0.116000
     33 CY2          7.5230    -5.3110     7.8810 ca         1 BDU      -0.116000
     34 CG1          9.7960    -5.1570     9.4590 ca         1 BDU      -0.131000
     35 CG2          7.8460    -6.3540     8.7360 ca         1 BDU      -0.131000
     36 C2Z          8.9850    -6.2820     9.5280 ca         1 BDU      -0.129000
     37 HO21         3.3000     2.7750    -1.1410 h1         1 BDU       0.023700
     38 HO22         2.2320     3.9000    -1.9900 h1         1 BDU       0.023700
     39 HO23         1.9250     2.1630    -2.0800 h1         1 BDU       0.023700
     40 HX31        -0.6380     2.3840     1.2520 hc         1 BDU       0.060700
     41 HX32         0.4420     3.6250     1.8920 hc         1 BDU       0.060700
     42 HX4          0.2670     0.7280     2.8200 h1         1 BDU       0.080700
     43 HA          -0.3300     3.1230     4.1590 ho         1 BDU       0.399000
     44 HX5          2.1190     2.9360     3.8100 h1         1 BDU       0.102700
     45 HB           2.0380     0.0950     4.6190 hn         1 BDU       0.305500
     46 H111         3.1480     0.7260     7.6470 hc         1 BDU       0.051033
     47 H112         1.3980     0.6470     7.7520 hc         1 BDU       0.051033
     48 H113         2.2660    -0.4730     6.6980 hc         1 BDU       0.051033
     49 HX6          2.5800     0.4060     2.1960 h1         1 BDU       0.059700
     50 HX7          4.4310     0.5920     3.5380 h1         1 BDU       0.025700
     51 HC           5.4880     2.4650     3.9280 ho         1 BDU       0.420000
     52 HX8          5.1330     1.9600     0.9050 h1         1 BDU       0.059700
     53 HD           3.8960     0.0650     0.5320 ho         1 BDU       0.490000
     54 HX91         7.2160     0.6970     1.0310 h1         1 BDU       0.054700
     55 HX92         7.0620     1.9110     2.2770 h1         1 BDU       0.054700
     56 HE           7.1590    -0.9860     2.5900 hn         1 BDU       0.320500
     57 HD1          8.1410     0.3140     6.6720 ha         1 BDU       0.148500
     58 HE1          8.6890    -1.5080     8.1960 ha         1 BDU       0.132500
     59 HD2          6.6280    -2.5320     3.8360 ha         1 BDU       0.148500
     60 HE2          7.1940    -4.3360     5.3390 ha         1 BDU       0.132500
     61 HY1         10.1270    -3.2530     8.5480 ha         1 BDU       0.134000
     62 HY2          6.6210    -5.3730     7.2850 ha         1 BDU       0.134000
     63 HG1         10.6900    -5.0940    10.0660 ha         1 BDU       0.128000
     64 HG2          7.2020    -7.2220     8.7870 ha         1 BDU       0.128000
     65 H2Z          9.2380    -7.0970    10.1930 ha         1 BDU       0.127000
@<TRIPOS>BOND
     1     1     2 1   
     2     1     3 1   
     3     1     4 1   
     4     4     5 1   
     5     4     7 1   
     6     4    16 1   
     7     5     6 1   
     8     6    37 1   
     9     6    38 1   
    10     6    39 1   
    11     7     8 1   
    12     7    40 1   
    13     7    41 1   
    14     8     9 1   
    15     8    10 1   
    16     8    42 1   
    17     9    43 1   
    18    10    11 1   
    19    10    15 1   
    20    10    44 1   
    21    11    12 1   
    22    11    45 1   
    23    12    13 2   
    24    12    14 1   
    25    14    46 1   
    26    14    47 1   
    27    14    48 1   
    28    15    16 1   
    29    15    17 1   
    30    15    49 1   
    31    17    18 1   
    32    17    19 1   
    33    17    50 1   
    34    18    51 1   
    35    19    20 1   
    36    19    21 1   
    37    19    52 1   
    38    20    53 1   
    39    21    22 1   
    40    21    54 1   
    41    21    55 1   
    42    22    23 1   
    43    22    56 1   
    44    23    24 2   
    45    23    25 1   
    46    25    26 ar  
    47    25    28 ar  
    48    26    27 ar  
    49    26    57 1   
    50    27    30 ar  
    51    27    58 1   
    52    28    29 ar  
    53    28    59 1   
    54    29    30 ar  
    55    29    60 1   
    56    30    31 1   
    57    31    32 ar  
    58    31    33 ar  
    59    32    34 ar  
    60    32    61 1   
    61    33    35 ar  
    62    33    62 1   
    63    34    36 ar  
    64    34    63 1   
    65    35    36 ar  
    66    35    64 1   
    67    36    65 1   
@<TRIPOS>SUBSTRUCTURE
     1 BDU         1 TEMP              0 ****  ****    0 ROOT
