@<TRIPOS>MOLECULE
BDU
   65    67     1     0     0
SMALL
No Charge or Current Charge


@<TRIPOS>ATOM
      1 CX1          0.9840     1.0780    -0.1330 c          1 BDU       0.691000
      2 O1A          1.8300     0.1830    -0.0940 o          1 BDU      -0.708500
      3 O1B          0.3670     1.2200    -1.1850 o          1 BDU      -0.708500
      4 CX2          1.3260     2.4280     0.7050 c6         1 BDU       0.259000
      5 OX2          1.2980     3.6200    -0.1350 os         1 BDU      -0.454000
      6 CO2          2.2860     3.7270    -1.1810 c3         1 BDU       0.169900
      7 CX3          0.2820     2.7050     1.8370 c6         1 BDU      -0.110400
      8 CX4          0.4830     1.8510     3.1170 c6         1 BDU       0.151300
      9 OX4         -0.4070     2.3190     4.1390 oh         1 BDU      -0.663000
     10 CX5          1.9630     1.8960     3.6130 c6         1 BDU       0.040700
     11 NX5          2.1770     1.0180     4.7910 ns         1 BDU      -0.484900
     12 C10          1.8240     1.3150     6.0850 c          1 BDU       0.610100
     13 O10          1.2010     2.3280     6.3650 o          1 BDU      -0.621100
     14 C11          2.2410     0.2840     7.1250 c3         1 BDU      -0.180100
     15 CX6          2.8180     1.4580     2.4020 c6         1 BDU       0.185300
     16 OX6          2.6480     2.4030     1.3120 os         1 BDU      -0.480000
     17 CX7          4.3500     1.2520     2.6340 c3         1 BDU       0.157300
     18 OX7          5.0160     2.4350     3.1280 oh         1 BDU      -0.717000
     19 CX8          5.0490     0.7450     1.3190 c3         1 BDU       0.147300
     20 OX8          4.3830    -0.4300     0.7960 oh         1 BDU      -0.720000
     21 CX9          6.5710     0.4540     1.4720 c3         1 BDU       0.093000
     22 NX6          6.9150    -0.4350     2.5950 ns         1 BDU      -0.478900
     23 C12          7.1710    -0.0110     3.8810 c          1 BDU       0.606700
     24 O12          7.1280     1.1800     4.1660 o          1 BDU      -0.634100
     25 C1G          7.4820    -1.0780     4.9100 ca         1 BDU      -0.138600
     26 CD1          7.7360    -0.6970     6.2460 ca         1 BDU      -0.072500
     27 CE1          8.0220    -1.6600     7.2280 ca         1 BDU      -0.114000
     28 CD2          7.5230    -2.4550     4.5860 ca         1 BDU      -0.072500
     29 CE2          7.8090    -3.4140     5.5740 ca         1 BDU      -0.114000
     30 C1Z          8.0650    -3.0400     6.9150 cp         1 BDU      -0.023000
     31 C2G          8.3700    -4.0660     7.9630 cp         1 BDU      -0.031000
     32 CY1          9.2810    -3.7920     9.0150 ca         1 BDU      -0.098000
     33 CY2          7.7560    -5.3450     7.9380 ca         1 BDU      -0.098000
     34 CG1          9.5680    -4.7540     9.9990 ca         1 BDU      -0.113000
     35 CG2          8.0410    -6.3080     8.9220 ca         1 BDU      -0.113000
     36 C2Z          8.9470    -6.0130     9.9530 ca         1 BDU      -0.111000
     37 HO21         3.3000     3.7710    -0.7630 h1         1 BDU       0.023700
     38 HO22         2.1230     4.6440    -1.7610 h1         1 BDU       0.023700
     39 HO23         2.2350     2.8780    -1.8730 h1         1 BDU       0.023700
     40 HX31        -0.7310     2.5450     1.4440 hc         1 BDU       0.060700
     41 HX32         0.3340     3.7670     2.1140 hc         1 BDU       0.060700
     42 HX4          0.2400     0.8050     2.8700 h1         1 BDU       0.080700
     43 HA           0.1340     2.3660     4.9700 ho         1 BDU       0.438000
     44 HX5          2.2380     2.9280     3.8810 h1         1 BDU       0.102700
     45 HB           2.6670     0.1400     4.6600 hn         1 BDU       0.305500
     46 H111         3.3250     0.1310     7.0610 hc         1 BDU       0.051033
     47 H112         1.9290     0.5560     8.1390 hc         1 BDU       0.051033
     48 H113         1.8510    -0.6980     6.8320 hc         1 BDU       0.051033
     49 HX6          2.4330     0.4720     2.1190 h1         1 BDU       0.059700
     50 HX7          4.4440     0.4570     3.3840 h1         1 BDU       0.025700
     51 HC           5.8580     2.1040     3.5540 ho         1 BDU       0.519000
     52 HX8          4.9670     1.5500     0.5750 h1         1 BDU       0.059700
     53 HD           3.4890    -0.1430     0.4440 ho         1 BDU       0.529000
     54 HX91         6.9410    -0.0020     0.5440 h1         1 BDU       0.054700
     55 HX92         7.1070     1.4040     1.5940 h1         1 BDU       0.054700
     56 HE           6.9390    -1.4310     2.4230 hn         1 BDU       0.320500
     57 HD1          7.7090     0.3530     6.5320 ha         1 BDU       0.130500
     58 HE1          8.1990    -1.3300     8.2490 ha         1 BDU       0.114500
     59 HD2          7.3390    -2.8040     3.5730 ha         1 BDU       0.130500
     60 HE2          7.8470    -4.4620     5.2880 ha         1 BDU       0.114500
     61 HY1          9.7830    -2.8280     9.0620 ha         1 BDU       0.116000
     62 HY2          7.0410    -5.5900     7.1570 ha         1 BDU       0.116000
     63 HG1         10.2720    -4.5250    10.7950 ha         1 BDU       0.110000
     64 HG2          7.5570    -7.2810     8.8860 ha         1 BDU       0.110000
     65 H2Z          9.1680    -6.7580    10.7140 ha         1 BDU       0.109000
@<TRIPOS>BOND
     1     1     2 1   
     2     1     3 1   
     3     1     4 1   
     4     4     5 1   
     5     4     7 1   
     6     4    16 1   
     7     5     6 1   
     8     6    37 1   
     9     6    38 1   
    10     6    39 1   
    11     7     8 1   
    12     7    40 1   
    13     7    41 1   
    14     8     9 1   
    15     8    10 1   
    16     8    42 1   
    17     9    43 1   
    18    10    11 1   
    19    10    15 1   
    20    10    44 1   
    21    11    12 1   
    22    11    45 1   
    23    12    13 2   
    24    12    14 1   
    25    14    46 1   
    26    14    47 1   
    27    14    48 1   
    28    15    16 1   
    29    15    17 1   
    30    15    49 1   
    31    17    18 1   
    32    17    19 1   
    33    17    50 1   
    34    18    51 1   
    35    19    20 1   
    36    19    21 1   
    37    19    52 1   
    38    20    53 1   
    39    21    22 1   
    40    21    54 1   
    41    21    55 1   
    42    22    23 1   
    43    22    56 1   
    44    23    24 2   
    45    23    25 1   
    46    25    26 ar  
    47    25    28 ar  
    48    26    27 ar  
    49    26    57 1   
    50    27    30 ar  
    51    27    58 1   
    52    28    29 ar  
    53    28    59 1   
    54    29    30 ar  
    55    29    60 1   
    56    30    31 1   
    57    31    32 ar  
    58    31    33 ar  
    59    32    34 ar  
    60    32    61 1   
    61    33    35 ar  
    62    33    62 1   
    63    34    36 ar  
    64    34    63 1   
    65    35    36 ar  
    66    35    64 1   
    67    36    65 1   
@<TRIPOS>SUBSTRUCTURE
     1 BDU         1 TEMP              0 ****  ****    0 ROOT
