@<TRIPOS>MOLECULE
BDV
   61    62     1     0     0
SMALL
No Charge or Current Charge


@<TRIPOS>ATOM
      1 C1           5.1050     0.1840     0.3480 c5         1 BDV       0.162200
      2 N1           5.0400     0.3640    -1.1310 nu         1 BDV      -0.906400
      3 O1           3.4510     1.0660     2.0520 o          1 BDV      -0.518000
      4 C2           4.0570     1.2710    -1.3770 c2         1 BDV       0.684800
      5 N2           3.3690     1.5800    -0.2170 n          1 BDV      -0.388300
      6 O2          -5.4610    -1.6560    -0.8760 o          1 BDV      -0.641100
      7 C3           3.8900     0.9760     0.9100 c          1 BDV       0.560000
      8 N3           4.0350     1.8940    -2.4730 n2         1 BDV      -0.873100
      9 C4           6.4140     0.8050     0.8990 c3         1 BDV      -0.104100
     10 N4          -3.9200     0.0100    -0.6920 ns         1 BDV      -0.513900
     11 C5           4.9630    -1.3230     0.7490 c3         1 BDV      -0.066400
     12 N5          -6.1300     0.5270    -0.8030 ns         1 BDV      -0.523900
     13 C6           6.1680    -2.2910     0.5230 c3         1 BDV      -0.056700
     14 C7           5.8560    -3.6880     1.1090 c3         1 BDV      -0.087600
     15 C8           6.6040    -2.4160    -0.9560 c3         1 BDV      -0.087600
     16 C9           2.1450     2.3990    -0.1460 c3         1 BDV       0.161300
     17 C10          0.8770     1.5670    -0.2800 ca         1 BDV      -0.116300
     18 C11          0.2020     1.1090     0.8680 ca         1 BDV      -0.091500
     19 C12         -0.9630     0.3330     0.7450 ca         1 BDV      -0.098500
     20 C13         -1.4660     0.0030    -0.5280 ca         1 BDV      -0.098300
     21 C14         -0.7930     0.4600    -1.6760 ca         1 BDV      -0.098500
     22 C15          0.3730     1.2370    -1.5530 ca         1 BDV      -0.091500
     23 C16         -2.7290    -0.8340    -0.6600 c3         1 BDV       0.151300
     24 C17         -7.5760     0.3090    -0.8730 c3         1 BDV       0.112000
     25 C18         -8.1720    -0.0910     0.4930 c3         1 BDV      -0.095400
     26 C19         -9.7000    -0.3030     0.4430 c3         1 BDV      -0.073400
     27 C20         -5.1930    -0.4690    -0.7950 c          1 BDV       0.645100
     28 C21        -10.2990    -0.7010     1.8060 c3         1 BDV      -0.089100
     29 HN1          5.8760     0.5370    -1.6790 hn         1 BDV       0.511000
     30 HN3          3.3090     2.6170    -2.4130 hn         1 BDV       0.398400
     31 H4           6.4530     1.8830     0.7030 hc         1 BDV       0.052367
     32 H4A          6.4910     0.6650     1.9840 hc         1 BDV       0.052367
     33 H4B          7.3040     0.3590     0.4400 hc         1 BDV       0.052367
     34 HN4         -3.7980     1.0120    -0.6310 hn         1 BDV       0.299500
     35 H5           4.7230    -1.3620     1.8190 hc         1 BDV       0.062700
     36 H5A          4.0830    -1.7400     0.2440 hc         1 BDV       0.062700
     37 HN5         -5.7920     1.4780    -0.7350 hn         1 BDV       0.303500
     38 H6           7.0270    -1.9070     1.0870 hc         1 BDV       0.042700
     39 H7           5.0080    -4.1500     0.5880 hc         1 BDV       0.034700
     40 H7A          6.7220    -4.3540     1.0100 hc         1 BDV       0.034700
     41 H7B          5.6080    -3.6180     2.1750 hc         1 BDV       0.034700
     42 H8           7.0200    -1.4730    -1.3280 hc         1 BDV       0.034700
     43 H8A          7.3830    -3.1800    -1.0670 hc         1 BDV       0.034700
     44 H8B          5.7560    -2.6980    -1.5920 hc         1 BDV       0.034700
     45 H9           2.1280     2.9390     0.8100 h1         1 BDV       0.065200
     46 H9A          2.1650     3.1620    -0.9340 h1         1 BDV       0.065200
     47 H11          0.5810     1.3530     1.8580 ha         1 BDV       0.121500
     48 H12         -1.4760    -0.0120     1.6410 ha         1 BDV       0.119500
     49 H14         -1.1720     0.2150    -2.6660 ha         1 BDV       0.119500
     50 H15          0.8840     1.5790    -2.4510 ha         1 BDV       0.121500
     51 H16         -2.8060    -1.5290     0.1860 h1         1 BDV       0.059700
     52 H16A        -2.6870    -1.4280    -1.5830 h1         1 BDV       0.059700
     53 H17         -8.0520     1.2350    -1.2220 h1         1 BDV       0.052200
     54 H17A        -7.7850    -0.4770    -1.6130 h1         1 BDV       0.052200
     55 H18         -7.6910    -1.0130     0.8420 hc         1 BDV       0.041700
     56 H18A        -7.9390     0.6910     1.2270 hc         1 BDV       0.041700
     57 H19        -10.1850     0.6180     0.0960 hc         1 BDV       0.041200
     58 H19A        -9.9350    -1.0840    -0.2920 hc         1 BDV       0.041200
     59 H21        -11.3830    -0.8410     1.7210 hc         1 BDV       0.033033
     60 H21A        -9.8590    -1.6400     2.1640 hc         1 BDV       0.033033
     61 H21B       -10.1110     0.0770     2.5550 hc         1 BDV       0.033033
@<TRIPOS>BOND
     1     1     2 1   
     2     1     7 1   
     3     1     9 1   
     4     1    11 1   
     5     2     4 1   
     6     2    29 1   
     7     3     7 2   
     8     4     5 1   
     9     4     8 2   
    10     5     7 1   
    11     5    16 1   
    12     6    27 2   
    13     8    30 1   
    14     9    31 1   
    15     9    32 1   
    16     9    33 1   
    17    10    23 1   
    18    10    27 1   
    19    10    34 1   
    20    11    13 1   
    21    11    35 1   
    22    11    36 1   
    23    12    24 1   
    24    12    27 1   
    25    12    37 1   
    26    13    14 1   
    27    13    15 1   
    28    13    38 1   
    29    14    39 1   
    30    14    40 1   
    31    14    41 1   
    32    15    42 1   
    33    15    43 1   
    34    15    44 1   
    35    16    17 1   
    36    16    45 1   
    37    16    46 1   
    38    17    18 ar  
    39    17    22 ar  
    40    18    19 ar  
    41    18    47 1   
    42    19    20 ar  
    43    19    48 1   
    44    20    21 ar  
    45    20    23 1   
    46    21    22 ar  
    47    21    49 1   
    48    22    50 1   
    49    23    51 1   
    50    23    52 1   
    51    24    25 1   
    52    24    53 1   
    53    24    54 1   
    54    25    26 1   
    55    25    55 1   
    56    25    56 1   
    57    26    28 1   
    58    26    57 1   
    59    26    58 1   
    60    28    59 1   
    61    28    60 1   
    62    28    61 1   
@<TRIPOS>SUBSTRUCTURE
     1 BDV         1 TEMP              0 ****  ****    0 ROOT
