@<TRIPOS>MOLECULE
BDV
   61    62     1     0     0
SMALL
abcg2


@<TRIPOS>ATOM
      1 C1           5.1760     0.2180     0.1450 c5         1 BDV       0.162200
      2 N1           4.8360     0.5760    -1.2180 nu         1 BDV      -0.906400
      3 O1           3.8770     0.9080     2.0990 o          1 BDV      -0.518000
      4 C2           3.8490     1.5080    -1.2960 c2         1 BDV       0.684800
      5 N2           3.3590     1.6730     0.0060 n          1 BDV      -0.388300
      6 O2          -4.8630    -2.1160    -0.4620 o          1 BDV      -0.641100
      7 C3           4.0790     0.9520     0.9070 c          1 BDV       0.560000
      8 N3           3.4830     2.0780    -2.3700 n2         1 BDV      -0.873100
      9 C4           6.5370     0.7710     0.5680 c3         1 BDV      -0.104100
     10 N4          -3.6910    -0.3050     0.2540 ns         1 BDV      -0.513900
     11 C5           5.0370    -1.2850     0.4320 c3         1 BDV      -0.066400
     12 N5          -5.9360    -0.1360    -0.1570 ns         1 BDV      -0.523900
     13 C6           6.1360    -2.2120    -0.0940 c3         1 BDV      -0.056700
     14 C7           5.8400    -3.6350     0.3740 c3         1 BDV      -0.087600
     15 C8           6.2970    -2.1890    -1.6120 c3         1 BDV      -0.087600
     16 C9           2.1710     2.4260     0.3580 c3         1 BDV       0.161300
     17 C10          0.9480     1.5490     0.4100 ca         1 BDV      -0.116300
     18 C11          0.5140     1.0090     1.6140 ca         1 BDV      -0.091500
     19 C12         -0.5920     0.1690     1.6540 ca         1 BDV      -0.098500
     20 C13         -1.2860    -0.1500     0.4940 ca         1 BDV      -0.098300
     21 C14         -0.8570     0.4010    -0.7120 ca         1 BDV      -0.098500
     22 C15          0.2470     1.2360    -0.7540 ca         1 BDV      -0.091500
     23 C16         -2.4870    -1.0550     0.5380 c3         1 BDV       0.151300
     24 C17         -7.2250    -0.5820    -0.6350 c3         1 BDV       0.112000
     25 C18         -8.3530     0.1550     0.0710 c3         1 BDV      -0.095400
     26 C19         -9.7270    -0.2900    -0.4130 c3         1 BDV      -0.073400
     27 C20         -4.8380    -0.9320    -0.1420 c          1 BDV       0.645100
     28 C21        -10.8600     0.4460     0.2870 c3         1 BDV      -0.089100
     29 HN1          5.5250     0.5520    -1.9500 hn         1 BDV       0.511000
     30 HN3          2.7410     2.7510    -2.2310 hn         1 BDV       0.398400
     31 H4           6.5760     1.8550     0.4500 hc         1 BDV       0.052367
     32 H4A          6.7410     0.5290     1.6100 hc         1 BDV       0.052367
     33 H4B          7.3340     0.3410    -0.0390 hc         1 BDV       0.052367
     34 HN4         -3.7790     0.5780     0.7330 hn         1 BDV       0.299500
     35 H5           4.9930    -1.4030     1.5190 hc         1 BDV       0.062700
     36 H5A          4.0690    -1.6180     0.0420 hc         1 BDV       0.062700
     37 HN5         -5.8120     0.8590    -0.0520 hn         1 BDV       0.303500
     38 H6           7.0870    -1.9070     0.3550 hc         1 BDV       0.042700
     39 H7           4.9040    -4.0000    -0.0560 hc         1 BDV       0.034700
     40 H7A          6.6320    -4.3210     0.0700 hc         1 BDV       0.034700
     41 H7B          5.7490    -3.6910     1.4610 hc         1 BDV       0.034700
     42 H8           6.6830    -1.2410    -1.9860 hc         1 BDV       0.034700
     43 H8A          7.0040    -2.9580    -1.9290 hc         1 BDV       0.034700
     44 H8B          5.3460    -2.3870    -2.1120 hc         1 BDV       0.034700
     45 H9           2.3480     2.9040     1.3210 h1         1 BDV       0.065200
     46 H9A          2.0430     3.2290    -0.3670 h1         1 BDV       0.065200
     47 H11          1.0410     1.2430     2.5310 ha         1 BDV       0.121500
     48 H12         -0.9170    -0.2400     2.6030 ha         1 BDV       0.119500
     49 H14         -1.3900     0.1730    -1.6270 ha         1 BDV       0.119500
     50 H15          0.5650     1.6480    -1.7050 ha         1 BDV       0.121500
     51 H16         -2.5360    -1.5520     1.5140 h1         1 BDV       0.059700
     52 H16A        -2.3850    -1.8400    -0.2110 h1         1 BDV       0.059700
     53 H17         -7.3170    -0.4430    -1.7190 h1         1 BDV       0.052200
     54 H17A        -7.3130    -1.6520    -0.4470 h1         1 BDV       0.052200
     55 H18         -8.2700    -0.0090     1.1500 hc         1 BDV       0.041700
     56 H18A        -8.2460     1.2340    -0.0890 hc         1 BDV       0.041700
     57 H19         -9.8000    -0.1340    -1.4940 hc         1 BDV       0.041200
     58 H19A        -9.8350    -1.3670    -0.2540 hc         1 BDV       0.041200
     59 H21        -11.8340     0.1100    -0.0680 hc         1 BDV       0.033033
     60 H21A       -10.8270     0.2850     1.3660 hc         1 BDV       0.033033
     61 H21B       -10.7970     1.5220     0.1140 hc         1 BDV       0.033033
@<TRIPOS>BOND
     1     1     2 1   
     2     1     7 1   
     3     1     9 1   
     4     1    11 1   
     5     2     4 1   
     6     2    29 1   
     7     3     7 2   
     8     4     5 1   
     9     4     8 2   
    10     5     7 1   
    11     5    16 1   
    12     6    27 2   
    13     8    30 1   
    14     9    31 1   
    15     9    32 1   
    16     9    33 1   
    17    10    23 1   
    18    10    27 1   
    19    10    34 1   
    20    11    13 1   
    21    11    35 1   
    22    11    36 1   
    23    12    24 1   
    24    12    27 1   
    25    12    37 1   
    26    13    14 1   
    27    13    15 1   
    28    13    38 1   
    29    14    39 1   
    30    14    40 1   
    31    14    41 1   
    32    15    42 1   
    33    15    43 1   
    34    15    44 1   
    35    16    17 1   
    36    16    45 1   
    37    16    46 1   
    38    17    18 ar  
    39    17    22 ar  
    40    18    19 ar  
    41    18    47 1   
    42    19    20 ar  
    43    19    48 1   
    44    20    21 ar  
    45    20    23 1   
    46    21    22 ar  
    47    21    49 1   
    48    22    50 1   
    49    23    51 1   
    50    23    52 1   
    51    24    25 1   
    52    24    53 1   
    53    24    54 1   
    54    25    26 1   
    55    25    55 1   
    56    25    56 1   
    57    26    28 1   
    58    26    57 1   
    59    26    58 1   
    60    28    59 1   
    61    28    60 1   
    62    28    61 1   
@<TRIPOS>SUBSTRUCTURE
     1 BDV         1 TEMP              0 ****  ****    0 ROOT
