@<TRIPOS>MOLECULE
BDW
   88    92     1     0     0
SMALL
abcg2


@<TRIPOS>ATOM
      1 C1          -3.2400    -0.8930     0.2440 c5         1 BDW       0.172200
      2 N1          -3.0930    -0.8990     1.6770 nu         1 BDW      -0.932400
      3 O1          -1.8990     0.4850    -1.2630 o          1 BDW      -0.516000
      4 C2          -2.2010     0.0040     2.1440 c2         1 BDW       0.702800
      5 N2          -1.6560     0.6280     1.0110 n          1 BDW      -0.391300
      6 O2           5.6880    -0.8340    -2.3270 o          1 BDW      -0.578000
      7 C3          -2.1900     0.1350    -0.1410 c          1 BDW       0.568000
      8 N3          -1.9440     0.2120     3.3720 n2         1 BDW      -0.886100
      9 C4          -2.9860    -2.2700    -0.3940 c3         1 BDW      -0.069400
     10 N4           5.5650    -0.4640    -0.0530 n          1 BDW      -0.415800
     11 C5          -4.6250    -0.3920    -0.2060 c3         1 BDW      -0.082400
     12 N5           6.8640     0.8440    -1.2620 ns         1 BDW      -0.488900
     13 C6          -1.7830    -3.0850     0.0840 c6         1 BDW      -0.056700
     14 C7          -0.5570     1.5730     1.0340 c3         1 BDW       0.160300
     15 C8           0.7680     0.8810     0.8520 ca         1 BDW      -0.119300
     16 C9           1.3960     0.8790    -0.3900 ca         1 BDW      -0.091000
     17 C10          2.5760     0.1790    -0.5850 ca         1 BDW      -0.100000
     18 C11          3.1560    -0.5360     0.4600 ca         1 BDW      -0.115300
     19 C12          2.5370    -0.5200     1.7030 ca         1 BDW      -0.100000
     20 C13          1.3540     0.1780     1.8990 ca         1 BDW      -0.091000
     21 C14         -1.9780    -4.5450    -0.3380 c6         1 BDW      -0.071900
     22 C15         -0.8180    -5.4360     0.0900 c6         1 BDW      -0.072400
     23 C16          0.5090    -4.9100    -0.4440 c6         1 BDW      -0.074400
     24 C17          0.7250    -3.4640    -0.0160 c6         1 BDW      -0.072400
     25 C18         -0.4380    -2.5670    -0.4310 c6         1 BDW      -0.071900
     26 C19         -5.0040     1.0080     0.2610 c3         1 BDW      -0.076400
     27 C22          4.4370    -1.3060     0.2490 c3         1 BDW       0.158300
     28 C23          6.0080     0.5680     0.8570 c5         1 BDW       0.083000
     29 C24          7.2070     1.1680     0.1150 c5         1 BDW       0.083700
     30 C25          6.0060    -0.2200    -1.3200 c          1 BDW       0.586000
     31 C26          7.3870     2.6550     0.3590 c3         1 BDW      -0.079400
     32 C27          8.5880     3.2530    -0.3640 c3         1 BDW      -0.074400
     33 C28          8.7570     4.7380    -0.0780 c3         1 BDW      -0.089100
     34 C29         -6.4630     1.3630    -0.0290 c6         1 BDW      -0.058700
     35 C30         -6.8230     2.7260     0.5660 c6         1 BDW      -0.072400
     36 C31         -8.2740     3.1100     0.2880 c6         1 BDW      -0.072900
     37 C32         -8.5790     3.0860    -1.2060 c6         1 BDW      -0.074400
     38 C33         -8.2310     1.7310    -1.8110 c6         1 BDW      -0.072900
     39 C34         -6.7820     1.3470    -1.5250 c6         1 BDW      -0.072400
     40 HN1         -3.7000    -1.4080     2.2970 hn         1 BDW       0.524000
     41 HN3         -1.2520     0.9370     3.5060 hn         1 BDW       0.396400
     42 H4          -3.8910    -2.8600    -0.2160 hc         1 BDW       0.054200
     43 H4A         -2.9310    -2.1330    -1.4790 hc         1 BDW       0.054200
     44 H5          -4.6550    -0.4520    -1.2960 hc         1 BDW       0.056200
     45 H5A         -5.3640    -1.1110     0.1610 hc         1 BDW       0.056200
     46 HN5          7.5590     0.9240    -1.9880 hn         1 BDW       0.321500
     47 H6          -1.7590    -3.0600     1.1800 hc         1 BDW       0.055700
     48 H7          -0.7240     2.3020     0.2420 h1         1 BDW       0.065700
     49 H7A         -0.5940     2.1250     1.9740 h1         1 BDW       0.065700
     50 H9           0.9480     1.4180    -1.2160 ha         1 BDW       0.121500
     51 H10          3.0400     0.1770    -1.5640 ha         1 BDW       0.122000
     52 H12          2.9830    -1.0600     2.5300 ha         1 BDW       0.122000
     53 H13          0.8900     0.1690     2.8780 ha         1 BDW       0.121500
     54 H14         -2.9130    -4.9250     0.0820 hc         1 BDW       0.040450
     55 H14A        -2.0890    -4.5910    -1.4290 hc         1 BDW       0.040450
     56 H15         -0.7780    -5.4730     1.1840 hc         1 BDW       0.038450
     57 H15A        -0.9890    -6.4610    -0.2490 hc         1 BDW       0.038450
     58 H16          1.3350    -5.5370    -0.0970 hc         1 BDW       0.038700
     59 H16A         0.5090    -4.9710    -1.5380 hc         1 BDW       0.038700
     60 H17          0.8440    -3.4210     1.0720 hc         1 BDW       0.038450
     61 H17A         1.6550    -3.0720    -0.4360 hc         1 BDW       0.038450
     62 H18         -0.4760    -2.5050    -1.5250 hc         1 BDW       0.040450
     63 H18A        -0.2380    -1.5570    -0.0710 hc         1 BDW       0.040450
     64 H19         -4.8350     1.0920     1.3390 hc         1 BDW       0.047700
     65 H19A        -4.3620     1.7560    -0.2170 hc         1 BDW       0.047700
     66 H22          4.3200    -2.0180    -0.5680 h1         1 BDW       0.068700
     67 H22A         4.6640    -1.8880     1.1460 h1         1 BDW       0.068700
     68 H23          5.2270     1.3230     1.0140 h1         1 BDW       0.053700
     69 H23A         6.2850     0.1590     1.8290 h1         1 BDW       0.053700
     70 H24          8.1230     0.6400     0.4110 h1         1 BDW       0.043700
     71 H26          6.4710     3.1750     0.0590 hc         1 BDW       0.052200
     72 H26A         7.5000     2.8120     1.4360 hc         1 BDW       0.052200
     73 H27          9.4940     2.7170    -0.0670 hc         1 BDW       0.038700
     74 H27A         8.4830     3.1040    -1.4440 hc         1 BDW       0.038700
     75 H28          8.9140     4.9190     0.9870 hc         1 BDW       0.034367
     76 H28A         9.6130     5.1510    -0.6130 hc         1 BDW       0.034367
     77 H28B         7.8730     5.3020    -0.3810 hc         1 BDW       0.034367
     78 H29         -7.0960     0.6080     0.4590 hc         1 BDW       0.043700
     79 H30         -6.6350     2.7210     1.6430 hc         1 BDW       0.039200
     80 H30A        -6.1600     3.4880     0.1370 hc         1 BDW       0.039200
     81 H31         -8.9390     2.4080     0.8030 hc         1 BDW       0.037950
     82 H31A        -8.4870     4.0980     0.7030 hc         1 BDW       0.037950
     83 H32         -9.6320     3.3220    -1.3820 hc         1 BDW       0.038700
     84 H32A        -7.9970     3.8670    -1.7060 hc         1 BDW       0.038700
     85 H33         -8.8950     0.9660    -1.3930 hc         1 BDW       0.037950
     86 H33A        -8.4080     1.7390    -2.8890 hc         1 BDW       0.037950
     87 H34         -6.1110     2.0500    -2.0350 hc         1 BDW       0.039200
     88 H34A        -6.5750     0.3630    -1.9500 hc         1 BDW       0.039200
@<TRIPOS>BOND
     1     1     2 1   
     2     1     7 1   
     3     1     9 1   
     4     1    11 1   
     5     2     4 1   
     6     2    40 1   
     7     3     7 2   
     8     4     5 1   
     9     4     8 2   
    10     5     7 1   
    11     5    14 1   
    12     6    30 2   
    13     8    41 1   
    14     9    13 1   
    15     9    42 1   
    16     9    43 1   
    17    10    27 1   
    18    10    28 1   
    19    10    30 1   
    20    11    26 1   
    21    11    44 1   
    22    11    45 1   
    23    12    29 1   
    24    12    30 1   
    25    12    46 1   
    26    13    21 1   
    27    13    25 1   
    28    13    47 1   
    29    14    15 1   
    30    14    48 1   
    31    14    49 1   
    32    15    16 ar  
    33    15    20 ar  
    34    16    17 ar  
    35    16    50 1   
    36    17    18 ar  
    37    17    51 1   
    38    18    19 ar  
    39    18    27 1   
    40    19    20 ar  
    41    19    52 1   
    42    20    53 1   
    43    21    22 1   
    44    21    54 1   
    45    21    55 1   
    46    22    23 1   
    47    22    56 1   
    48    22    57 1   
    49    23    24 1   
    50    23    58 1   
    51    23    59 1   
    52    24    25 1   
    53    24    60 1   
    54    24    61 1   
    55    25    62 1   
    56    25    63 1   
    57    26    34 1   
    58    26    64 1   
    59    26    65 1   
    60    27    66 1   
    61    27    67 1   
    62    28    29 1   
    63    28    68 1   
    64    28    69 1   
    65    29    31 1   
    66    29    70 1   
    67    31    32 1   
    68    31    71 1   
    69    31    72 1   
    70    32    33 1   
    71    32    73 1   
    72    32    74 1   
    73    33    75 1   
    74    33    76 1   
    75    33    77 1   
    76    34    35 1   
    77    34    39 1   
    78    34    78 1   
    79    35    36 1   
    80    35    79 1   
    81    35    80 1   
    82    36    37 1   
    83    36    81 1   
    84    36    82 1   
    85    37    38 1   
    86    37    83 1   
    87    37    84 1   
    88    38    39 1   
    89    38    85 1   
    90    38    86 1   
    91    39    87 1   
    92    39    88 1   
@<TRIPOS>SUBSTRUCTURE
     1 BDW         1 TEMP              0 ****  ****    0 ROOT
