@<TRIPOS>MOLECULE
BDW
   88    92     1     0     0
SMALL
No Charge or Current Charge


@<TRIPOS>ATOM
      1 C1          -3.2000    -0.8780     0.3220 c5         1 BDW       0.172200
      2 N1          -2.9860    -0.7990     1.7950 nu         1 BDW      -0.932400
      3 O1          -1.8960     0.3130    -1.4910 o          1 BDW      -0.516000
      4 C2          -2.0550     0.1700     1.9960 c2         1 BDW       0.702800
      5 N2          -1.5590     0.6460     0.7930 n          1 BDW      -0.391300
      6 O2           6.0480    -0.5730    -2.4690 o          1 BDW      -0.578000
      7 C3          -2.1600     0.0800    -0.3160 c          1 BDW       0.568000
      8 N3          -1.9550     0.7100     3.1300 n2         1 BDW      -0.886100
      9 C4          -3.0180    -2.3550    -0.1670 c3         1 BDW      -0.069400
     10 N4           5.7510    -0.6010    -0.1670 n          1 BDW      -0.415800
     11 C5          -4.6470    -0.4070    -0.0330 c3         1 BDW      -0.082400
     12 N5           7.3830     0.6130    -1.0470 ns         1 BDW      -0.488900
     13 C6          -1.7290    -3.1700     0.2110 c6         1 BDW      -0.056700
     14 C7          -0.4170     1.5660     0.6480 c3         1 BDW       0.160300
     15 C8           0.8950     0.8200     0.4500 ca         1 BDW      -0.119300
     16 C9           1.4600     0.7020    -0.8340 ca         1 BDW      -0.091000
     17 C10          2.6440    -0.0320    -1.0240 ca         1 BDW      -0.100000
     18 C11          3.2740    -0.6580     0.0680 ca         1 BDW      -0.115300
     19 C12          2.7130    -0.5360     1.3530 ca         1 BDW      -0.100000
     20 C13          1.5290     0.1980     1.5430 ca         1 BDW      -0.091000
     21 C14         -1.9230    -4.6720    -0.1500 c6         1 BDW      -0.071900
     22 C15         -0.6870    -5.5250     0.2290 c6         1 BDW      -0.072400
     23 C16          0.5930    -4.9810    -0.4460 c6         1 BDW      -0.074400
     24 C17          0.8110    -3.4930    -0.0900 c6         1 BDW      -0.072400
     25 C18         -0.4250    -2.6350    -0.4550 c6         1 BDW      -0.071900
     26 C19         -4.9850     1.0770     0.2870 c3         1 BDW      -0.076400
     27 C22          4.5530    -1.4560    -0.1420 c3         1 BDW       0.158300
     28 C23          6.3950    -0.0150     1.0160 c5         1 BDW       0.083000
     29 C24          7.4390     0.9760     0.3750 c5         1 BDW       0.083700
     30 C25          6.3580    -0.2220    -1.3430 c          1 BDW       0.586000
     31 C26          7.0810     2.4630     0.6100 c3         1 BDW      -0.079400
     32 C27          8.0800     3.4660    -0.0110 c3         1 BDW      -0.074400
     33 C28          7.7150     4.9360     0.2740 c3         1 BDW      -0.089100
     34 C29         -6.4660     1.4970     0.0320 c6         1 BDW      -0.058700
     35 C30         -6.7180     2.9440     0.5440 c6         1 BDW      -0.072400
     36 C31         -8.1850     3.3870     0.3170 c6         1 BDW      -0.072900
     37 C32         -8.5790     3.2660    -1.1740 c6         1 BDW      -0.074400
     38 C33         -8.3430     1.8280    -1.6940 c6         1 BDW      -0.072900
     39 C34         -6.8780     1.3780    -1.4660 c6         1 BDW      -0.072400
     40 HN1         -3.7680    -0.7230     2.4390 hn         1 BDW       0.524000
     41 HN3         -1.3140     1.5060     3.0480 hn         1 BDW       0.396400
     42 H4          -3.8790    -2.9230     0.2080 hc         1 BDW       0.054200
     43 H4A         -3.1280    -2.3730    -1.2580 hc         1 BDW       0.054200
     44 H5          -4.8060    -0.5690    -1.1060 hc         1 BDW       0.056200
     45 H5A         -5.3760    -1.0470     0.4800 hc         1 BDW       0.056200
     46 HN5          7.9330     1.0120    -1.7980 hn         1 BDW       0.321500
     47 H6          -1.6170    -3.0980     1.3020 hc         1 BDW       0.055700
     48 H7          -0.5980     2.2300    -0.2070 h1         1 BDW       0.065700
     49 H7A         -0.3400     2.2070     1.5350 h1         1 BDW       0.065700
     50 H9           0.9760     1.1680    -1.6900 ha         1 BDW       0.121500
     51 H10          3.0700    -0.1170    -2.0210 ha         1 BDW       0.122000
     52 H12          3.1900    -1.0130     2.2060 ha         1 BDW       0.122000
     53 H13          1.1000     0.2720     2.5400 ha         1 BDW       0.121500
     54 H14         -2.8060    -5.0720     0.3660 hc         1 BDW       0.040450
     55 H14A        -2.1210    -4.7750    -1.2270 hc         1 BDW       0.040450
     56 H15         -0.5590    -5.5280     1.3200 hc         1 BDW       0.038450
     57 H15A        -0.8490    -6.5700    -0.0690 hc         1 BDW       0.038450
     58 H16          1.4630    -5.5720    -0.1300 hc         1 BDW       0.038700
     59 H16A         0.5160    -5.0940    -1.5360 hc         1 BDW       0.038700
     60 H17          1.0240    -3.3950     0.9840 hc         1 BDW       0.038450
     61 H17A         1.6960    -3.1110    -0.6180 hc         1 BDW       0.038450
     62 H18         -0.5450    -2.6020    -1.5460 hc         1 BDW       0.040450
     63 H18A        -0.2230    -1.6120    -0.1280 hc         1 BDW       0.040450
     64 H19         -4.7470     1.2660     1.3410 hc         1 BDW       0.047700
     65 H19A        -4.3220     1.7300    -0.2930 hc         1 BDW       0.047700
     66 H22          4.4790    -2.0240    -1.0790 h1         1 BDW       0.068700
     67 H22A         4.6630    -2.1890     0.6680 h1         1 BDW       0.068700
     68 H23          5.6690     0.5000     1.6600 h1         1 BDW       0.053700
     69 H23A         6.8950    -0.7920     1.6100 h1         1 BDW       0.053700
     70 H24          8.4380     0.7920     0.7910 h1         1 BDW       0.043700
     71 H26          6.0790     2.6670     0.2110 hc         1 BDW       0.052200
     72 H26A         7.0270     2.6500     1.6890 hc         1 BDW       0.052200
     73 H27          9.0860     3.2650     0.3800 hc         1 BDW       0.038700
     74 H27A         8.1240     3.3180    -1.0970 hc         1 BDW       0.038700
     75 H28          7.7000     5.1300     1.3530 hc         1 BDW       0.034367
     76 H28A         8.4500     5.6080    -0.1850 hc         1 BDW       0.034367
     77 H28B         6.7270     5.1770    -0.1360 hc         1 BDW       0.034367
     78 H29         -7.0910     0.8110     0.6220 hc         1 BDW       0.043700
     79 H30         -6.4820     3.0100     1.6150 hc         1 BDW       0.039200
     80 H30A        -6.0420     3.6440     0.0330 hc         1 BDW       0.039200
     81 H31         -8.8570     2.7700     0.9300 hc         1 BDW       0.037950
     82 H31A        -8.3180     4.4240     0.6540 hc         1 BDW       0.037950
     83 H32         -9.6350     3.5420    -1.3050 hc         1 BDW       0.038700
     84 H32A        -7.9930     3.9780    -1.7720 hc         1 BDW       0.038700
     85 H33         -9.0260     1.1340    -1.1850 hc         1 BDW       0.037950
     86 H33A        -8.5860     1.7750    -2.7640 hc         1 BDW       0.037950
     87 H34         -6.2050     1.9860    -2.0870 hc         1 BDW       0.039200
     88 H34A        -6.7730     0.3420    -1.8130 hc         1 BDW       0.039200
@<TRIPOS>BOND
     1     1     2 1   
     2     1     7 1   
     3     1     9 1   
     4     1    11 1   
     5     2     4 1   
     6     2    40 1   
     7     3     7 2   
     8     4     5 1   
     9     4     8 2   
    10     5     7 1   
    11     5    14 1   
    12     6    30 2   
    13     8    41 1   
    14     9    13 1   
    15     9    42 1   
    16     9    43 1   
    17    10    27 1   
    18    10    28 1   
    19    10    30 1   
    20    11    26 1   
    21    11    44 1   
    22    11    45 1   
    23    12    29 1   
    24    12    30 1   
    25    12    46 1   
    26    13    21 1   
    27    13    25 1   
    28    13    47 1   
    29    14    15 1   
    30    14    48 1   
    31    14    49 1   
    32    15    16 ar  
    33    15    20 ar  
    34    16    17 ar  
    35    16    50 1   
    36    17    18 ar  
    37    17    51 1   
    38    18    19 ar  
    39    18    27 1   
    40    19    20 ar  
    41    19    52 1   
    42    20    53 1   
    43    21    22 1   
    44    21    54 1   
    45    21    55 1   
    46    22    23 1   
    47    22    56 1   
    48    22    57 1   
    49    23    24 1   
    50    23    58 1   
    51    23    59 1   
    52    24    25 1   
    53    24    60 1   
    54    24    61 1   
    55    25    62 1   
    56    25    63 1   
    57    26    34 1   
    58    26    64 1   
    59    26    65 1   
    60    27    66 1   
    61    27    67 1   
    62    28    29 1   
    63    28    68 1   
    64    28    69 1   
    65    29    31 1   
    66    29    70 1   
    67    31    32 1   
    68    31    71 1   
    69    31    72 1   
    70    32    33 1   
    71    32    73 1   
    72    32    74 1   
    73    33    75 1   
    74    33    76 1   
    75    33    77 1   
    76    34    35 1   
    77    34    39 1   
    78    34    78 1   
    79    35    36 1   
    80    35    79 1   
    81    35    80 1   
    82    36    37 1   
    83    36    81 1   
    84    36    82 1   
    85    37    38 1   
    86    37    83 1   
    87    37    84 1   
    88    38    39 1   
    89    38    85 1   
    90    38    86 1   
    91    39    87 1   
    92    39    88 1   
@<TRIPOS>SUBSTRUCTURE
     1 BDW         1 TEMP              0 ****  ****    0 ROOT
