@<TRIPOS>MOLECULE
BDX
   56    58     1     0     0
SMALL
abcg2


@<TRIPOS>ATOM
      1 C1          -0.8510    -2.0420     0.8480 c2         1 BDX       0.691800
      2 N1          -0.7180    -2.0500    -0.5450 n          1 BDX      -0.341300
      3 O1          -0.3560    -0.5230    -2.2080 o          1 BDX      -0.516000
      4 C2          -0.4830    -0.8090    -1.0380 c          1 BDX       0.565000
      5 N2          -0.5990    -0.7690     1.2420 nu         1 BDX      -0.973400
      6 C3          -0.3810     0.1440     0.1440 c5         1 BDX       0.164200
      7 N3          -1.1410    -3.0900     1.5030 n2         1 BDX      -0.873100
      8 C4           1.0290     0.7580     0.1800 c3         1 BDX      -0.070400
      9 C5          -2.8870     0.9200     0.3370 c6         1 BDX      -0.056700
     10 C6          -3.6830     2.2080     0.5700 c6         1 BDX      -0.073400
     11 C7          -5.1530     1.9340     0.8670 c6         1 BDX      -0.073400
     12 C8          -5.7980     1.1090    -0.2400 c6         1 BDX      -0.075400
     13 C9          -5.0150    -0.1750    -0.4850 c6         1 BDX      -0.073400
     14 C10         -3.5450     0.1110    -0.7810 c6         1 BDX      -0.073400
     15 C11         -1.4230     1.2750     0.0780 c3         1 BDX      -0.079400
     16 C12          2.1690    -0.2530     0.1870 c3         1 BDX      -0.075400
     17 C13          3.5430     0.3650     0.4390 c6         1 BDX      -0.058700
     18 C14          4.6020    -0.7300     0.5760 c6         1 BDX      -0.071900
     19 C15          5.9970    -0.1620     0.8190 c6         1 BDX      -0.072900
     20 C16          6.3900     0.8240    -0.2750 c6         1 BDX      -0.074400
     21 C17          5.3480     1.9290    -0.4090 c6         1 BDX      -0.072900
     22 C18          3.9540     1.3550    -0.6520 c6         1 BDX      -0.071900
     23 C19         -0.8990    -3.2210    -1.3650 c3         1 BDX       0.104300
     24 HN2         -0.7610    -0.4630     2.1860 hn         1 BDX       0.507000
     25 HN3         -1.1840    -2.8970     2.4970 hn         1 BDX       0.392400
     26 H4           1.1200     1.4370    -0.6710 hc         1 BDX       0.053200
     27 H4A          1.0890     1.3830     1.0770 hc         1 BDX       0.053200
     28 H5          -2.9410     0.3300     1.2600 hc         1 BDX       0.043700
     29 H6          -3.2340     2.7750     1.3910 hc         1 BDX       0.041200
     30 H6A         -3.6040     2.8420    -0.3220 hc         1 BDX       0.041200
     31 H7          -5.2330     1.3940     1.8160 hc         1 BDX       0.039200
     32 H7A         -5.6890     2.8770     1.0020 hc         1 BDX       0.039200
     33 H8          -6.8370     0.8800     0.0100 hc         1 BDX       0.039700
     34 H8A         -5.8220     1.6980    -1.1640 hc         1 BDX       0.039700
     35 H9          -5.0850    -0.8170     0.4000 hc         1 BDX       0.039200
     36 H9A         -5.4570    -0.7380    -1.3110 hc         1 BDX       0.039200
     37 H10         -3.4680     0.6690    -1.7220 hc         1 BDX       0.041200
     38 H10A        -3.0310    -0.8390    -0.9420 hc         1 BDX       0.041200
     39 H11         -1.1200     2.0190     0.8220 hc         1 BDX       0.056700
     40 H11A        -1.3240     1.7700    -0.8920 hc         1 BDX       0.056700
     41 H12          1.9830    -1.0000     0.9650 hc         1 BDX       0.048700
     42 H12A         2.2000    -0.7950    -0.7650 hc         1 BDX       0.048700
     43 H13          3.5010     0.9130     1.3920 hc         1 BDX       0.041700
     44 H14          4.3290    -1.4110     1.3880 hc         1 BDX       0.039200
     45 H14A         4.6090    -1.3320    -0.3410 hc         1 BDX       0.039200
     46 H15          6.0160     0.3470     1.7890 hc         1 BDX       0.037450
     47 H15A         6.7270    -0.9730     0.8810 hc         1 BDX       0.037450
     48 H16          7.3740     1.2520    -0.0670 hc         1 BDX       0.038700
     49 H16A         6.4770     0.2910    -1.2280 hc         1 BDX       0.038700
     50 H17          5.3370     2.5290     0.5070 hc         1 BDX       0.037450
     51 H17A         5.6170     2.6110    -1.2200 hc         1 BDX       0.037450
     52 H18          3.9370     0.8400    -1.6210 hc         1 BDX       0.039200
     53 H18A         3.2300     2.1700    -0.7220 hc         1 BDX       0.039200
     54 H19         -0.8840    -4.0990    -0.7270 h1         1 BDX       0.053700
     55 H19A        -1.8530    -3.1870    -1.8930 h1         1 BDX       0.053700
     56 H19B        -0.0960    -3.2980    -2.0950 h1         1 BDX       0.053700
@<TRIPOS>BOND
     1     1     2 1   
     2     1     5 1   
     3     1     7 2   
     4     2     4 1   
     5     2    23 1   
     6     3     4 2   
     7     4     6 1   
     8     5     6 1   
     9     5    24 1   
    10     6     8 1   
    11     6    15 1   
    12     7    25 1   
    13     8    16 1   
    14     8    26 1   
    15     8    27 1   
    16     9    10 1   
    17     9    14 1   
    18     9    15 1   
    19     9    28 1   
    20    10    11 1   
    21    10    29 1   
    22    10    30 1   
    23    11    12 1   
    24    11    31 1   
    25    11    32 1   
    26    12    13 1   
    27    12    33 1   
    28    12    34 1   
    29    13    14 1   
    30    13    35 1   
    31    13    36 1   
    32    14    37 1   
    33    14    38 1   
    34    15    39 1   
    35    15    40 1   
    36    16    17 1   
    37    16    41 1   
    38    16    42 1   
    39    17    18 1   
    40    17    22 1   
    41    17    43 1   
    42    18    19 1   
    43    18    44 1   
    44    18    45 1   
    45    19    20 1   
    46    19    46 1   
    47    19    47 1   
    48    20    21 1   
    49    20    48 1   
    50    20    49 1   
    51    21    22 1   
    52    21    50 1   
    53    21    51 1   
    54    22    52 1   
    55    22    53 1   
    56    23    54 1   
    57    23    55 1   
    58    23    56 1   
@<TRIPOS>SUBSTRUCTURE
     1 BDX         1 TEMP              0 ****  ****    0 ROOT
