@<TRIPOS>MOLECULE
BDX
   56    58     1     0     0
SMALL
No Charge or Current Charge


@<TRIPOS>ATOM
      1 C1          -0.7980    -2.0810     0.9280 c2         1 BDX       0.691800
      2 N1          -0.7130    -2.0820    -0.4560 n          1 BDX      -0.341300
      3 O1          -0.4390    -0.5520    -2.1930 o          1 BDX      -0.516000
      4 C2          -0.5060    -0.8290    -1.0000 c          1 BDX       0.565000
      5 N2          -0.5940    -0.8350     1.4420 nu         1 BDX      -0.973400
      6 C3          -0.3910     0.0630     0.2650 c5         1 BDX       0.164200
      7 N3          -1.0630    -3.0530     1.6830 n2         1 BDX      -0.873100
      8 C4           1.0340     0.6980     0.3340 c3         1 BDX      -0.070400
      9 C5          -2.9850     0.8960     0.4030 c6         1 BDX      -0.056700
     10 C6          -3.7790     2.2190     0.6240 c6         1 BDX      -0.073400
     11 C7          -5.2980     1.9680     0.7820 c6         1 BDX      -0.073400
     12 C8          -5.8650     1.2090    -0.4390 c6         1 BDX      -0.075400
     13 C9          -5.1020    -0.1160    -0.6620 c6         1 BDX      -0.073400
     14 C10         -3.5790     0.1220    -0.8130 c6         1 BDX      -0.073400
     15 C11         -1.4520     1.2130     0.2740 c3         1 BDX      -0.079400
     16 C12          2.2290    -0.2930     0.2490 c3         1 BDX      -0.075400
     17 C13          3.6420     0.3420     0.4390 c6         1 BDX      -0.058700
     18 C14          4.7340    -0.7650     0.5020 c6         1 BDX      -0.071900
     19 C15          6.1470    -0.1670     0.7040 c6         1 BDX      -0.072900
     20 C16          6.4830     0.8590    -0.4030 c6         1 BDX      -0.074400
     21 C17          5.4110     1.9720    -0.4700 c6         1 BDX      -0.072900
     22 C18          3.9930     1.3790    -0.6690 c6         1 BDX      -0.071900
     23 C19         -0.8930    -3.2680    -1.3120 c3         1 BDX       0.104300
     24 HN2         -1.2520    -0.5690     2.1700 hn         1 BDX       0.507000
     25 HN3         -1.0100    -2.7050     2.6470 hn         1 BDX       0.392400
     26 H4           1.1290     1.4230    -0.4830 hc         1 BDX       0.053200
     27 H4A          1.1310     1.2730     1.2630 hc         1 BDX       0.053200
     28 H5          -3.1110     0.2770     1.3020 hc         1 BDX       0.043700
     29 H6          -3.4060     2.7360     1.5180 hc         1 BDX       0.041200
     30 H6A         -3.6080     2.9010    -0.2210 hc         1 BDX       0.041200
     31 H7          -5.4860     1.3920     1.6980 hc         1 BDX       0.039200
     32 H7A         -5.8230     2.9260     0.9020 hc         1 BDX       0.039200
     33 H8          -6.9340     1.0050    -0.2890 hc         1 BDX       0.039700
     34 H8A         -5.7890     1.8380    -1.3370 hc         1 BDX       0.039700
     35 H9          -5.2870    -0.7950     0.1820 hc         1 BDX       0.039200
     36 H9A         -5.4890    -0.6220    -1.5580 hc         1 BDX       0.039200
     37 H10         -3.3810     0.6740    -1.7420 hc         1 BDX       0.041200
     38 H10A        -3.1010    -0.8570    -0.9200 hc         1 BDX       0.041200
     39 H11         -1.1920     1.8850     1.1020 hc         1 BDX       0.056700
     40 H11A        -1.3050     1.8200    -0.6280 hc         1 BDX       0.056700
     41 H12          2.0880    -1.0660     1.0140 hc         1 BDX       0.048700
     42 H12A         2.1960    -0.8140    -0.7160 hc         1 BDX       0.048700
     43 H13          3.6230     0.8590     1.4090 hc         1 BDX       0.041700
     44 H14          4.5140    -1.4630     1.3220 hc         1 BDX       0.039200
     45 H14A         4.7170    -1.3580    -0.4230 hc         1 BDX       0.039200
     46 H15          6.2070     0.3170     1.6890 hc         1 BDX       0.037450
     47 H15A         6.8960    -0.9710     0.7060 hc         1 BDX       0.037450
     48 H16          7.4700     1.3030    -0.2150 hc         1 BDX       0.038700
     49 H16A         6.5490     0.3490    -1.3740 hc         1 BDX       0.038700
     50 H17          5.4360     2.5660     0.4540 hc         1 BDX       0.037450
     51 H17A         5.6430     2.6640    -1.2920 hc         1 BDX       0.037450
     52 H18          3.9270     0.9050    -1.6580 hc         1 BDX       0.039200
     53 H18A         3.2670     2.2030    -0.6680 hc         1 BDX       0.039200
     54 H19         -0.6610    -4.1820    -0.7500 h1         1 BDX       0.053700
     55 H19A        -1.9320    -3.3150    -1.6610 h1         1 BDX       0.053700
     56 H19B        -0.2230    -3.2120    -2.1800 h1         1 BDX       0.053700
@<TRIPOS>BOND
     1     1     2 1   
     2     1     5 1   
     3     1     7 2   
     4     2     4 1   
     5     2    23 1   
     6     3     4 2   
     7     4     6 1   
     8     5     6 1   
     9     5    24 1   
    10     6     8 1   
    11     6    15 1   
    12     7    25 1   
    13     8    16 1   
    14     8    26 1   
    15     8    27 1   
    16     9    10 1   
    17     9    14 1   
    18     9    15 1   
    19     9    28 1   
    20    10    11 1   
    21    10    29 1   
    22    10    30 1   
    23    11    12 1   
    24    11    31 1   
    25    11    32 1   
    26    12    13 1   
    27    12    33 1   
    28    12    34 1   
    29    13    14 1   
    30    13    35 1   
    31    13    36 1   
    32    14    37 1   
    33    14    38 1   
    34    15    39 1   
    35    15    40 1   
    36    16    17 1   
    37    16    41 1   
    38    16    42 1   
    39    17    18 1   
    40    17    22 1   
    41    17    43 1   
    42    18    19 1   
    43    18    44 1   
    44    18    45 1   
    45    19    20 1   
    46    19    46 1   
    47    19    47 1   
    48    20    21 1   
    49    20    48 1   
    50    20    49 1   
    51    21    22 1   
    52    21    50 1   
    53    21    51 1   
    54    22    52 1   
    55    22    53 1   
    56    23    54 1   
    57    23    55 1   
    58    23    56 1   
@<TRIPOS>SUBSTRUCTURE
     1 BDX         1 TEMP              0 ****  ****    0 ROOT
