@<TRIPOS>MOLECULE
BDY
   66    70     1     0     0
SMALL
abcg2


@<TRIPOS>ATOM
      1 N1           4.9470     3.0530     1.6570 nv         1 BDY      -1.040900
      2 N3           2.7630     3.3650     2.3690 nb         1 BDY      -0.697000
      3 C4           1.4700     3.0180     2.3040 ca         1 BDY       0.295900
      4 C5           1.0210     2.0440     1.4400 cp         1 BDY       0.350500
      5 C7           3.1730     1.6640     0.7620 ca         1 BDY       0.522900
      6 C10          4.8110    -0.7600    -1.4900 ca         1 BDY      -0.091300
      7 C13          6.5680    -2.4450    -1.6570 ca         1 BDY      -0.107500
      8 C15          6.3810    -0.7570    -3.3580 ca         1 BDY      -0.107500
      9 C20         -2.7470     2.1180     1.6710 ca         1 BDY      -0.080000
     10 C21         -3.0880     0.8680     1.1610 ca         1 BDY      -0.136600
     11 C22         -2.0730     0.0310     0.7060 ca         1 BDY      -0.080000
     12 C24         -4.5340     0.5170     1.0210 c          1 BDY       0.630700
     13 C28         -5.2890    -2.0040     3.2670 c5         1 BDY      -0.100400
     14 C2           3.6200     2.7340     1.6070 ca         1 BDY       0.506900
     15 N6           1.9060     1.3630     0.6850 nb         1 BDY      -0.704000
     16 C9           3.6390    -0.1530    -0.7760 c3         1 BDY       0.256100
     17 C11          5.4880    -1.8770    -0.9990 ca         1 BDY       0.136500
     18 CL12         4.9970    -2.5990     0.5000 cl         1 BDY      -0.186500
     19 C14          7.0070    -1.8810    -2.8430 ca         1 BDY      -0.087000
     20 C16          5.3050    -0.2140    -2.6760 ca         1 BDY       0.136500
     21 CL17         4.5580     1.2020    -3.3370 cl         1 BDY      -0.186500
     22 C18         -0.3960     1.6580     1.3310 cp         1 BDY      -0.115500
     23 C19         -1.4210     2.5010     1.7670 ca         1 BDY      -0.099500
     24 C23         -0.7480     0.4240     0.7800 ca         1 BDY      -0.099500
     25 O25         -5.3170     1.3620     0.6020 o          1 BDY      -0.598100
     26 N26         -4.9020    -0.7320     1.3620 n          1 BDY      -0.399800
     27 C27         -4.1930    -1.6090     2.2870 c5         1 BDY       0.099000
     28 C29         -6.5130    -2.1630     2.3660 c5         1 BDY      -0.094400
     29 C30         -6.2750    -1.2040     1.1820 c5         1 BDY       0.103700
     30 C31         -6.4390    -1.9430    -0.1430 c3         1 BDY       0.169800
     31 N32         -6.2290    -1.1310    -1.3090 n3         1 BDY      -0.709600
     32 C33         -6.0890    -1.8990    -2.5330 c5         1 BDY       0.159800
     33 C34         -6.1660    -0.8450    -3.6420 c5         1 BDY      -0.078900
     34 C35         -6.9170     0.3360    -2.9900 c5         1 BDY      -0.078900
     35 C36         -7.2810    -0.1760    -1.5980 c5         1 BDY       0.159800
     36 HN1          5.1570     3.9000     2.1630 hn         1 BDY       0.466000
     37 HN1A         5.4610     2.9870     0.7910 hn         1 BDY       0.466000
     38 H4           0.8020     3.5460     2.9720 h4         1 BDY       0.030100
     39 H13          7.0610    -3.3140    -1.2470 ha         1 BDY       0.136000
     40 H15          6.7260    -0.3080    -4.2790 ha         1 BDY       0.136000
     41 H20         -3.5220     2.7960     2.0010 ha         1 BDY       0.125000
     42 H22         -2.3140    -0.9340     0.2760 ha         1 BDY       0.125000
     43 H28         -5.0470    -2.9120     3.8180 hc         1 BDY       0.054200
     44 H28A        -5.4390    -1.2000     3.9900 hc         1 BDY       0.054200
     45 HN8          4.9970     0.8730     0.4300 hn         1 BDY       0.480000
     46 H9           2.8990     0.1840    -1.5010 h1         1 BDY       0.070700
     47 H9A          3.1360    -0.9020    -0.1590 h1         1 BDY       0.070700
     48 H14          7.8460    -2.3170    -3.3680 ha         1 BDY       0.125000
     49 H19         -1.1910     3.4800     2.1670 ha         1 BDY       0.123500
     50 H23          0.0280    -0.2360     0.4140 ha         1 BDY       0.123500
     51 H27         -3.3570    -1.1020     2.7630 h1         1 BDY       0.053700
     52 H27A        -3.8030    -2.4890     1.7660 h1         1 BDY       0.053700
     53 H29         -6.5800    -3.1920     2.0040 hc         1 BDY       0.050700
     54 H29A        -7.4480    -1.9450     2.8810 hc         1 BDY       0.050700
     55 H30         -6.9520    -0.3500     1.2280 h1         1 BDY       0.078700
     56 H31         -5.7150    -2.7640    -0.1590 h1         1 BDY       0.029200
     57 H31A        -7.4390    -2.4160    -0.1430 h1         1 BDY       0.029200
     58 H33         -5.1530    -2.4610    -2.5350 h1         1 BDY       0.035200
     59 H33A        -6.9070    -2.6310    -2.6520 h1         1 BDY       0.035200
     60 H34         -5.1690    -0.5420    -3.9620 hc         1 BDY       0.046700
     61 H34A        -6.6810    -1.2320    -4.5210 hc         1 BDY       0.046700
     62 H35         -6.2670     1.2090    -2.9130 hc         1 BDY       0.046700
     63 H35A        -7.8000     0.6400    -3.5520 hc         1 BDY       0.046700
     64 H36         -8.2730    -0.6630    -1.6170 h1         1 BDY       0.035200
     65 H36A        -7.3170     0.6170    -0.8520 h1         1 BDY       0.035200
     66 N8           4.0860     0.9810     0.0070 nu         1 BDY      -0.905100
@<TRIPOS>BOND
     1     1    14 1   
     2     1    36 1   
     3     1    37 1   
     4     2     3 ar  
     5     2    14 ar  
     6     3     4 ar  
     7     3    38 1   
     8     4    15 ar  
     9     4    22 1   
    10     5    14 ar  
    11     5    15 ar  
    12     5    66 1   
    13     6    16 1   
    14     6    17 ar  
    15     6    20 ar  
    16     7    17 ar  
    17     7    19 ar  
    18     7    39 1   
    19     8    19 ar  
    20     8    20 ar  
    21     8    40 1   
    22     9    10 ar  
    23     9    23 ar  
    24     9    41 1   
    25    10    11 ar  
    26    10    12 1   
    27    11    24 ar  
    28    11    42 1   
    29    12    25 2   
    30    12    26 1   
    31    13    27 1   
    32    13    28 1   
    33    13    43 1   
    34    13    44 1   
    35    16    46 1   
    36    16    47 1   
    37    16    66 1   
    38    17    18 1   
    39    19    48 1   
    40    20    21 1   
    41    22    23 ar  
    42    22    24 ar  
    43    23    49 1   
    44    24    50 1   
    45    26    27 1   
    46    26    29 1   
    47    27    51 1   
    48    27    52 1   
    49    28    29 1   
    50    28    53 1   
    51    28    54 1   
    52    29    30 1   
    53    29    55 1   
    54    30    31 1   
    55    30    56 1   
    56    30    57 1   
    57    31    32 1   
    58    31    35 1   
    59    32    33 1   
    60    32    58 1   
    61    32    59 1   
    62    33    34 1   
    63    33    60 1   
    64    33    61 1   
    65    34    35 1   
    66    34    62 1   
    67    34    63 1   
    68    35    64 1   
    69    35    65 1   
    70    45    66 1   
@<TRIPOS>SUBSTRUCTURE
     1 BDY         1 TEMP              0 ****  ****    0 ROOT
