@<TRIPOS>MOLECULE
BDY
   66    70     1     0     0
SMALL
No Charge or Current Charge


@<TRIPOS>ATOM
      1 N1           4.8750     3.5590     1.3040 nv         1 BDY      -1.040900
      2 N3           2.7620     3.7990     1.8900 nb         1 BDY      -0.697000
      3 C4           1.4720     3.3510     1.8740 ca         1 BDY       0.295900
      4 C5           1.0500     2.1360     1.2210 cp         1 BDY       0.350500
      5 C7           3.2340     1.7640     0.5810 ca         1 BDY       0.522900
      6 C10          5.0420    -0.9970    -1.3570 ca         1 BDY      -0.091300
      7 C13          6.9860    -2.4740    -1.1600 ca         1 BDY      -0.107500
      8 C15          6.5840    -1.2880    -3.2380 ca         1 BDY      -0.107500
      9 C20         -2.7940     2.1170     1.5070 ca         1 BDY      -0.080000
     10 C21         -3.1160     0.7710     1.2400 ca         1 BDY      -0.136600
     11 C22         -2.0630    -0.1210     0.9350 ca         1 BDY      -0.080000
     12 C24         -4.5680     0.3290     1.2410 c          1 BDY       0.630700
     13 C28         -5.4310    -2.3430     3.2570 c5         1 BDY      -0.100400
     14 C2           3.6280     3.0070     1.2440 ca         1 BDY       0.506900
     15 N6           1.9520     1.3410     0.5760 nb         1 BDY      -0.704000
     16 C9           3.7880    -0.3670    -0.7540 c3         1 BDY       0.256100
     17 C11          5.8370    -1.8910    -0.6000 ca         1 BDY       0.136500
     18 Cl12         5.4310    -2.3010     1.0690 cl         1 BDY      -0.186500
     19 C14          7.3620    -2.1760    -2.4790 ca         1 BDY      -0.087000
     20 C16          5.4330    -0.7010    -2.6850 ca         1 BDY       0.136500
     21 Cl17         4.5100     0.4150    -3.6950 cl         1 BDY      -0.186500
     22 C18         -0.3870     1.6670     1.2230 cp         1 BDY      -0.115500
     23 C19         -1.4590     2.5560     1.5040 ca         1 BDY      -0.099500
     24 C23         -0.7290     0.3190     0.9310 ca         1 BDY      -0.099500
     25 O25         -5.4700     1.1430     1.0750 o          1 BDY      -0.598100
     26 N26         -4.8380    -1.0500     1.3950 n          1 BDY      -0.399800
     27 C27         -4.1990    -1.7790     2.5160 c5         1 BDY       0.099000
     28 C29         -6.2620    -2.8340     2.0540 c5         1 BDY      -0.094400
     29 C30         -6.1930    -1.6060     1.0970 c5         1 BDY       0.103700
     30 C31         -6.3810    -2.0430    -0.3870 c3         1 BDY       0.169800
     31 N32         -6.3900    -0.9520    -1.3910 n3         1 BDY      -0.709600
     32 C33         -6.4080    -1.3950    -2.7990 c5         1 BDY       0.159800
     33 C34         -6.5230    -0.0440    -3.5550 c5         1 BDY      -0.078900
     34 C35         -7.2540     0.8940    -2.5420 c5         1 BDY      -0.078900
     35 C36         -7.5410    -0.0280    -1.3290 c5         1 BDY       0.159800
     36 HN1          4.9040     4.5080     1.6630 hn         1 BDY       0.466000
     37 HN1A         5.5310     3.3500     0.5580 hn         1 BDY       0.466000
     38 H4           0.7580     3.9740     2.4090 h4         1 BDY       0.030100
     39 H13          7.5880    -3.1580    -0.5670 ha         1 BDY       0.136000
     40 H15          6.8740    -1.0520    -4.2590 ha         1 BDY       0.136000
     41 H20         -3.5840     2.8330     1.7260 ha         1 BDY       0.125000
     42 H22         -2.2710    -1.1570     0.6790 ha         1 BDY       0.125000
     43 H28         -5.1700    -3.1480     3.9540 hc         1 BDY       0.054200
     44 H28A        -5.9550    -1.5640     3.8240 hc         1 BDY       0.054200
     45 HN8          5.1050     1.1260     0.0270 hn         1 BDY       0.480000
     46 H9           3.0380    -0.1980    -1.5390 h1         1 BDY       0.070700
     47 H9A          3.3240    -1.0630    -0.0420 h1         1 BDY       0.070700
     48 H14          8.2530    -2.6290    -2.9090 ha         1 BDY       0.125000
     49 H19         -1.2680     3.6060     1.7100 ha         1 BDY       0.123500
     50 H23          0.0500    -0.4040     0.6960 ha         1 BDY       0.123500
     51 H27         -3.6020    -1.1250     3.1670 h1         1 BDY       0.053700
     52 H27A        -3.5500    -2.5820     2.1410 h1         1 BDY       0.053700
     53 H29         -5.8110    -3.7280     1.6050 hc         1 BDY       0.050700
     54 H29A        -7.2910    -3.0910     2.3270 hc         1 BDY       0.050700
     55 H30         -6.9790    -0.8850     1.3610 h1         1 BDY       0.078700
     56 H31         -5.5700    -2.7450    -0.6290 h1         1 BDY       0.029200
     57 H31A        -7.3200    -2.6080    -0.4590 h1         1 BDY       0.029200
     58 H33         -5.5010    -1.9500    -3.0780 h1         1 BDY       0.035200
     59 H33A        -7.2780    -2.0370    -3.0020 h1         1 BDY       0.035200
     60 H34         -5.5320     0.3520    -3.8060 hc         1 BDY       0.046700
     61 H34A        -7.0730    -0.1560    -4.4960 hc         1 BDY       0.046700
     62 H35         -6.6090     1.7300    -2.2510 hc         1 BDY       0.046700
     63 H35A        -8.1740     1.3230    -2.9540 hc         1 BDY       0.046700
     64 H36         -8.4920    -0.5670    -1.4560 h1         1 BDY       0.035200
     65 H36A        -7.5940     0.5360    -0.3890 h1         1 BDY       0.035200
     66 N8           4.1180     0.9030    -0.0840 nu         1 BDY      -0.905100
@<TRIPOS>BOND
     1     1    14 1   
     2     1    36 1   
     3     1    37 1   
     4     2     3 ar  
     5     2    14 ar  
     6     3     4 ar  
     7     3    38 1   
     8     4    15 ar  
     9     4    22 1   
    10     5    14 ar  
    11     5    15 ar  
    12     5    66 1   
    13     6    16 1   
    14     6    17 ar  
    15     6    20 ar  
    16     7    17 ar  
    17     7    19 ar  
    18     7    39 1   
    19     8    19 ar  
    20     8    20 ar  
    21     8    40 1   
    22     9    10 ar  
    23     9    23 ar  
    24     9    41 1   
    25    10    11 ar  
    26    10    12 1   
    27    11    24 ar  
    28    11    42 1   
    29    12    25 2   
    30    12    26 1   
    31    13    27 1   
    32    13    28 1   
    33    13    43 1   
    34    13    44 1   
    35    16    46 1   
    36    16    47 1   
    37    16    66 1   
    38    17    18 1   
    39    19    48 1   
    40    20    21 1   
    41    22    23 ar  
    42    22    24 ar  
    43    23    49 1   
    44    24    50 1   
    45    26    27 1   
    46    26    29 1   
    47    27    51 1   
    48    27    52 1   
    49    28    29 1   
    50    28    53 1   
    51    28    54 1   
    52    29    30 1   
    53    29    55 1   
    54    30    31 1   
    55    30    56 1   
    56    30    57 1   
    57    31    32 1   
    58    31    35 1   
    59    32    33 1   
    60    32    58 1   
    61    32    59 1   
    62    33    34 1   
    63    33    60 1   
    64    33    61 1   
    65    34    35 1   
    66    34    62 1   
    67    34    63 1   
    68    35    64 1   
    69    35    65 1   
    70    45    66 1   
@<TRIPOS>SUBSTRUCTURE
     1 BDY         1 TEMP              0 ****  ****    0 ROOT
