@<TRIPOS>MOLECULE
BDZ
   91    94     1     0     0
SMALL
No Charge or Current Charge


@<TRIPOS>ATOM
      1 C1           0.8710    -0.3660    -0.8980 c6         1 BDZ       0.376300
      2 O1           0.0410     0.3400     0.0430 os         1 BDZ      -0.426000
      3 C2           2.0680    -1.0340    -0.1430 c6         1 BDZ       0.157300
      4 O2           2.9290    -0.1000     0.5970 os         1 BDZ      -0.439000
      5 C3           2.8590    -1.9560    -1.1280 c6         1 BDZ       0.154300
      6 O3           3.9570    -2.6080    -0.4700 oh         1 BDZ      -0.685000
      7 C4           1.9110    -2.9960    -1.7890 c6         1 BDZ       0.104300
      8 O4           1.4490    -3.9300    -0.7920 oh         1 BDZ      -0.695000
      9 C5           0.7440    -2.2160    -2.4760 c6         1 BDZ       0.149300
     10 O5           0.0530    -1.3820    -1.5120 os         1 BDZ      -0.456000
     11 C6          -0.2950    -3.1650    -3.1580 c3         1 BDZ       0.168600
     12 O6          -1.3350    -2.4550    -3.8590 oh         1 BDZ      -0.704000
     13 CAA          3.7780     0.7870    -0.1660 c6         1 BDZ       0.357300
     14 CAB          4.0490     2.1630     0.5700 c6         1 BDZ       0.122300
     15 CAC          4.9650     1.9310     1.8080 c6         1 BDZ       0.182300
     16 CAD          6.2850     1.2160     1.3820 c6         1 BDZ       0.147300
     17 CAE          5.8690    -0.1360     0.7210 c6         1 BDZ       0.135300
     18 CAF          7.0790    -0.9800     0.2390 c3         1 BDZ      -0.089100
     19 OAG          2.8470     2.8650     0.9920 oh         1 BDZ      -0.730000
     20 OAH          5.2090     3.1810     2.4810 oh         1 BDZ      -0.647000
     21 OAI          7.0640     2.0410     0.4780 oh         1 BDZ      -0.701000
     22 OAJ          5.0240     0.0940    -0.4380 os         1 BDZ      -0.477000
     23 CAV         -2.4990     3.6520     0.1910 c6         1 BDZ       0.385300
     24 CAW         -3.2560     2.3110    -0.0410 c6         1 BDZ       0.051700
     25 CAX         -2.2720     1.1310     0.2660 c6         1 BDZ       0.166300
     26 CAY         -0.9170     1.2850    -0.5010 c6         1 BDZ       0.145300
     27 CAZ         -0.3530     2.7330    -0.3740 c6         1 BDZ       0.156300
     28 CBA          0.8460     3.0270    -1.3240 c3         1 BDZ       0.163600
     29 CBC         -6.8460     1.8680     1.3450 c3         1 BDZ      -0.184100
     30 NBD         -4.5110     2.2780     0.7590 ns         1 BDZ      -0.502900
     31 OBF         -2.8490    -0.1530    -0.0870 os         1 BDZ      -0.452000
     32 OBH         -1.3630     3.7260    -0.6630 os         1 BDZ      -0.478000
     33 OBI          1.5210     4.2490    -0.9850 oh         1 BDZ      -0.727000
     34 OBJ         -5.7580     0.9400    -0.5940 o          1 BDZ      -0.585100
     35 CBK         -3.5490    -0.8690     0.9510 c6         1 BDZ       0.365300
     36 CBL         -4.3480    -2.0790     0.3400 c6         1 BDZ       0.121300
     37 CBM         -3.3470    -3.1590    -0.1740 c6         1 BDZ       0.179300
     38 CBN         -2.3780    -3.5990     0.9720 c6         1 BDZ       0.150300
     39 CBO         -1.6490    -2.3080     1.4660 c6         1 BDZ       0.134300
     40 CBP         -0.6340    -2.5570     2.6100 c3         1 BDZ      -0.093100
     41 OBQ         -5.2470    -1.6970    -0.7380 oh         1 BDZ      -0.709000
     42 OBR         -4.0740    -4.2680    -0.7400 oh         1 BDZ      -0.654000
     43 OBS         -3.0970    -4.2550     2.0480 oh         1 BDZ      -0.704000
     44 OBT         -2.6050    -1.3320     1.9470 os         1 BDZ      -0.471000
     45 H1           1.2490     0.3100    -1.6750 h2         1 BDZ       0.010700
     46 H2           1.6080    -1.6870     0.6110 h1         1 BDZ       0.122700
     47 H3           3.2530    -1.3250    -1.9380 h1         1 BDZ       0.042700
     48 HO3          4.5880    -1.8750    -0.2710 ho         1 BDZ       0.503000
     49 H4           2.4740    -3.5330    -2.5670 h1         1 BDZ       0.035700
     50 HO4          2.2590    -4.1860    -0.2900 ho         1 BDZ       0.504000
     51 H5           1.1640    -1.5680    -3.2590 h1         1 BDZ       0.048700
     52 H6           0.2470    -3.8170    -3.8560 h1         1 BDZ       0.027700
     53 H6A         -0.7370    -3.8090    -2.3860 h1         1 BDZ       0.027700
     54 HO6         -1.9600    -3.1320    -4.2070 ho         1 BDZ       0.511000
     55 HAA          3.2920     1.0130    -1.1250 h2         1 BDZ       0.051700
     56 HAB          4.6030     2.7960    -0.1400 h1         1 BDZ       0.065700
     57 HAC          4.4280     1.2570     2.4940 h1         1 BDZ       0.058700
     58 HAD          6.8680     0.9950     2.2890 h1         1 BDZ       0.048700
     59 HAE          5.3150    -0.7350     1.4600 h1         1 BDZ       0.068700
     60 HAF          7.7890    -1.1510     1.0570 hc         1 BDZ       0.042367
     61 HAFA         6.7570    -1.9630    -0.1240 hc         1 BDZ       0.042367
     62 HAFB         7.6180    -0.4870    -0.5790 hc         1 BDZ       0.042367
     63 HOAG         2.4950     3.3830     0.2120 ho         1 BDZ       0.531000
     64 HOAH         4.3590     3.6690     2.3830 ho         1 BDZ       0.459000
     65 HOAI         7.8950     1.5510     0.2840 ho         1 BDZ       0.501000
     66 HAV         -2.1850     3.7450     1.2410 h2         1 BDZ       0.014700
     67 HAW         -3.5220     2.2650    -1.1070 h1         1 BDZ       0.125700
     68 HAX         -2.0430     1.1390     1.3420 h1         1 BDZ       0.056700
     69 HAY         -1.1010     1.0610    -1.5620 h1         1 BDZ       0.084700
     70 HAZ         -0.0090     2.8760     0.6620 h1         1 BDZ       0.071700
     71 HBA          1.5620     2.2060    -1.2650 h1         1 BDZ       0.036700
     72 HBAA         0.4770     3.0610    -2.3590 h1         1 BDZ       0.036700
     73 HBC         -7.0270     2.9440     1.4430 hc         1 BDZ       0.060033
     74 HBCA        -7.7490     1.3320     1.0310 hc         1 BDZ       0.060033
     75 HBCB        -6.5420     1.5880     2.3600 hc         1 BDZ       0.060033
     76 HNBD        -4.5590     2.8530     1.5920 hn         1 BDZ       0.305500
     77 HOBI         0.8610     4.9730    -1.1190 ho         1 BDZ       0.513000
     78 HBK         -4.2660    -0.1990     1.4440 h2         1 BDZ       0.060700
     79 HBL         -4.9340    -2.5180     1.1610 h1         1 BDZ       0.068700
     80 HBM         -2.7340    -2.6930    -0.9610 h1         1 BDZ       0.070700
     81 HBN         -1.6260    -4.2820     0.5480 h1         1 BDZ       0.041700
     82 HBO         -1.0940    -1.8790     0.6240 h1         1 BDZ       0.078700
     83 HBP          0.1090    -3.3100     2.3190 hc         1 BDZ       0.046367
     84 HBPA        -0.0910    -1.6360     2.8520 hc         1 BDZ       0.046367
     85 HBPB        -1.1270    -2.9020     3.5260 hc         1 BDZ       0.046367
     86 HOBQ        -5.3370    -0.7020    -0.7180 ho         1 BDZ       0.511000
     87 HOBR        -4.8830    -3.8490    -1.1160 ho         1 BDZ       0.456000
     88 HOBS        -2.4260    -4.5470     2.7050 ho         1 BDZ       0.501000
     89 OBE         -3.2920     4.7610    -0.1730 oh         1 BDZ      -0.624000
     90 CBB         -5.6770     1.6470     0.3980 c          1 BDZ       0.604100
     91 H45         -2.6860     5.2980    -0.7250 ho         1 BDZ       0.458000
@<TRIPOS>BOND
     1     1     2 1   
     2     1     3 1   
     3     1    10 1   
     4     1    45 1   
     5     2    26 1   
     6     3     4 1   
     7     3     5 1   
     8     3    46 1   
     9     4    13 1   
    10     5     6 1   
    11     5     7 1   
    12     5    47 1   
    13     6    48 1   
    14     7     8 1   
    15     7     9 1   
    16     7    49 1   
    17     8    50 1   
    18     9    10 1   
    19     9    11 1   
    20     9    51 1   
    21    11    12 1   
    22    11    52 1   
    23    11    53 1   
    24    12    54 1   
    25    13    14 1   
    26    13    22 1   
    27    13    55 1   
    28    14    15 1   
    29    14    19 1   
    30    14    56 1   
    31    15    16 1   
    32    15    20 1   
    33    15    57 1   
    34    16    17 1   
    35    16    21 1   
    36    16    58 1   
    37    17    18 1   
    38    17    22 1   
    39    17    59 1   
    40    18    60 1   
    41    18    61 1   
    42    18    62 1   
    43    19    63 1   
    44    20    64 1   
    45    21    65 1   
    46    23    24 1   
    47    23    32 1   
    48    23    66 1   
    49    23    89 1   
    50    24    25 1   
    51    24    30 1   
    52    24    67 1   
    53    25    26 1   
    54    25    31 1   
    55    25    68 1   
    56    26    27 1   
    57    26    69 1   
    58    27    28 1   
    59    27    32 1   
    60    27    70 1   
    61    28    33 1   
    62    28    71 1   
    63    28    72 1   
    64    29    73 1   
    65    29    74 1   
    66    29    75 1   
    67    29    90 1   
    68    30    76 1   
    69    30    90 1   
    70    31    35 1   
    71    33    77 1   
    72    34    90 2   
    73    35    36 1   
    74    35    44 1   
    75    35    78 1   
    76    36    37 1   
    77    36    41 1   
    78    36    79 1   
    79    37    38 1   
    80    37    42 1   
    81    37    80 1   
    82    38    39 1   
    83    38    43 1   
    84    38    81 1   
    85    39    40 1   
    86    39    44 1   
    87    39    82 1   
    88    40    83 1   
    89    40    84 1   
    90    40    85 1   
    91    41    86 1   
    92    42    87 1   
    93    43    88 1   
    94    89    91 1   
@<TRIPOS>SUBSTRUCTURE
     1 BDZ         1 TEMP              0 ****  ****    0 ROOT
