@<TRIPOS>MOLECULE
BDZ
   91    94     1     0     0
SMALL
bcc


@<TRIPOS>ATOM
      1 C1           0.8840    -0.3280    -0.8820 c6         1 BDZ       0.329900
      2 O1           0.1230     0.4660    -0.0470 os         1 BDZ      -0.379600
      3 C2           2.0130    -0.9340    -0.0290 c6         1 BDZ       0.134100
      4 O2           2.8120     0.0530     0.5870 os         1 BDZ      -0.392600
      5 C3           2.7900    -1.9570    -0.8590 c6         1 BDZ       0.131100
      6 O3           3.7390    -2.5670    -0.0290 oh         1 BDZ      -0.562800
      7 C4           1.8240    -2.9810    -1.4670 c6         1 BDZ       0.081100
      8 O4           1.2790    -3.7570    -0.4280 oh         1 BDZ      -0.572800
      9 C5           0.7540    -2.2310    -2.2580 c6         1 BDZ       0.126100
     10 O5           0.0700    -1.3350    -1.4100 os         1 BDZ      -0.409600
     11 C6          -0.2580    -3.1590    -2.8900 c3         1 BDZ       0.145400
     12 O6          -1.1340    -2.4070    -3.6910 oh         1 BDZ      -0.581800
     13 CAA          3.6390     0.8690    -0.1860 c6         1 BDZ       0.310900
     14 CAB          3.8870     2.1750     0.5870 c6         1 BDZ       0.099100
     15 CAC          4.7640     1.9020     1.8060 c6         1 BDZ       0.159100
     16 CAD          6.0580     1.2260     1.3830 c6         1 BDZ       0.124100
     17 CAE          5.7040    -0.0390     0.5980 c6         1 BDZ       0.112100
     18 CAF          6.9190    -0.7530     0.0430 c3         1 BDZ      -0.089100
     19 OAG          2.7050     2.7840     1.0360 oh         1 BDZ      -0.607800
     20 OAH          5.0590     3.0860     2.5020 oh         1 BDZ      -0.584800
     21 OAI          6.8170     2.1430     0.6300 oh         1 BDZ      -0.578800
     22 OAJ          4.8590     0.2680    -0.5050 os         1 BDZ      -0.430600
     23 CAV         -2.5440     3.5820    -0.0120 c6         1 BDZ       0.338900
     24 CAW         -3.1830     2.1980    -0.1140 c6         1 BDZ       0.051700
     25 CAX         -2.1460     1.1170     0.2240 c6         1 BDZ       0.143100
     26 CAY         -0.8730     1.2970    -0.6100 c6         1 BDZ       0.122100
     27 CAZ         -0.3980     2.7580    -0.5430 c6         1 BDZ       0.133100
     28 CBA          0.7390     3.0480    -1.5020 c3         1 BDZ       0.140400
     29 CBC         -6.6340     1.9900     1.4330 c3         1 BDZ      -0.184100
     30 NBD         -4.3270     2.1120     0.7550 ns         1 BDZ      -0.569900
     31 OBF         -2.6640    -0.1600    -0.0420 os         1 BDZ      -0.405600
     32 OBH         -1.4420     3.6420    -0.8800 os         1 BDZ      -0.431600
     33 OBI          1.4260     4.2040    -1.0570 oh         1 BDZ      -0.604800
     34 OBJ         -5.9120     1.8300    -0.8380 o          1 BDZ      -0.585100
     35 CBK         -3.2920    -0.8580     0.9940 c6         1 BDZ       0.318900
     36 CBL         -4.0950    -1.9910     0.3430 c6         1 BDZ       0.098100
     37 CBM         -3.1380    -3.0200    -0.2470 c6         1 BDZ       0.156100
     38 CBN         -2.1980    -3.5280     0.8370 c6         1 BDZ       0.127100
     39 CBO         -1.4750    -2.3370     1.4640 c6         1 BDZ       0.111100
     40 CBP         -0.5890    -2.7240     2.6280 c3         1 BDZ      -0.093100
     41 OBQ         -4.9250    -1.5300    -0.6950 oh         1 BDZ      -0.586800
     42 OBR         -3.8200    -4.1140    -0.8130 oh         1 BDZ      -0.591800
     43 OBS         -2.9550    -4.2700     1.7650 oh         1 BDZ      -0.581800
     44 OBT         -2.3990    -1.3600     1.9400 os         1 BDZ      -0.424600
     45 H1           1.3040     0.2510    -1.7260 h2         1 BDZ       0.010700
     46 H2           1.5400    -1.4600     0.8070 h1         1 BDZ       0.122700
     47 H3           3.2700    -1.4450    -1.7050 h1         1 BDZ       0.042700
     48 HO3          4.4010    -2.9930    -0.5820 ho         1 BDZ       0.404000
     49 H4           2.3940    -3.6050    -2.1700 h1         1 BDZ       0.035700
     50 HO4          1.0310    -4.6180    -0.7750 ho         1 BDZ       0.405000
     51 H5           1.2630    -1.6760    -3.0640 h1         1 BDZ       0.048700
     52 H6           0.2930    -3.9050    -3.4790 h1         1 BDZ       0.027700
     53 H6A         -0.8000    -3.7030    -2.1060 h1         1 BDZ       0.027700
     54 HO6         -1.8170    -2.9960    -4.0220 ho         1 BDZ       0.412000
     55 HAA          3.1820     1.0980    -1.1560 h2         1 BDZ       0.051700
     56 HAB          4.4350     2.8380    -0.0950 h1         1 BDZ       0.065700
     57 HAC          4.2350     1.1920     2.4600 h1         1 BDZ       0.058700
     58 HAD          6.6020     0.9110     2.2860 h1         1 BDZ       0.048700
     59 HAE          5.1910    -0.7190     1.2880 h1         1 BDZ       0.068700
     60 HAF          7.6170    -0.9930     0.8470 hc         1 BDZ       0.042367
     61 HAFA         6.6300    -1.6890    -0.4330 hc         1 BDZ       0.042367
     62 HAFB         7.4450    -0.1510    -0.6990 hc         1 BDZ       0.042367
     63 HOAG         2.3780     3.4000     0.3600 ho         1 BDZ       0.432000
     64 HOAH         4.2210     3.5280     2.6750 ho         1 BDZ       0.420000
     65 HOAI         7.6980     1.7800     0.5030 ho         1 BDZ       0.402000
     66 HAV         -2.1990     3.7520     1.0240 h2         1 BDZ       0.014700
     67 HAW         -3.5280     2.0520    -1.1400 h1         1 BDZ       0.125700
     68 HAX         -1.8610     1.2210     1.2820 h1         1 BDZ       0.056700
     69 HAY         -1.0870     1.0240    -1.6520 h1         1 BDZ       0.084700
     70 HAZ         -0.0560     2.9400     0.4890 h1         1 BDZ       0.071700
     71 HBA          1.4210     2.1980    -1.5550 h1         1 BDZ       0.036700
     72 HBAA         0.3300     3.1870    -2.5090 h1         1 BDZ       0.036700
     73 HBC         -7.2860     2.8530     1.2990 hc         1 BDZ       0.060033
     74 HBCA        -7.2580     1.1000     1.3610 hc         1 BDZ       0.060033
     75 HBCB        -6.2090     2.0350     2.4340 hc         1 BDZ       0.060033
     76 HNBD        -4.1730     2.2730     1.7380 hn         1 BDZ       0.305500
     77 HOBI         2.0380     4.4810    -1.7470 ho         1 BDZ       0.414000
     78 HBK         -3.9590    -0.2030     1.5630 h2         1 BDZ       0.060700
     79 HBL         -4.6890    -2.4660     1.1350 h1         1 BDZ       0.068700
     80 HBM         -2.5190    -2.5180    -1.0040 h1         1 BDZ       0.070700
     81 HBN         -1.4300    -4.1580     0.3640 h1         1 BDZ       0.041700
     82 HBO         -0.8490    -1.9030     0.6840 h1         1 BDZ       0.078700
     83 HBP          0.1680    -3.4340     2.2960 hc         1 BDZ       0.046367
     84 HBPA        -0.0670    -1.8500     3.0190 hc         1 BDZ       0.046367
     85 HBPB        -1.1490    -3.1700     3.4520 hc         1 BDZ       0.046367
     86 HOBQ        -5.6990    -1.1020    -0.3200 ho         1 BDZ       0.412000
     87 HOBR        -4.4130    -3.7670    -1.4860 ho         1 BDZ       0.417000
     88 HOBS        -2.3520    -4.7330     2.3530 ho         1 BDZ       0.402000
     89 OBE         -3.4620     4.5280    -0.4040 oh         1 BDZ      -0.561800
     90 CBB         -5.6000     1.9720     0.3350 c          1 BDZ       0.671100
     91 H45         -3.1890     5.3920    -0.0770 ho         1 BDZ       0.419000
@<TRIPOS>BOND
     1     1     2 1   
     2     1     3 1   
     3     1    10 1   
     4     1    45 1   
     5     2    26 1   
     6     3     4 1   
     7     3     5 1   
     8     3    46 1   
     9     4    13 1   
    10     5     6 1   
    11     5     7 1   
    12     5    47 1   
    13     6    48 1   
    14     7     8 1   
    15     7     9 1   
    16     7    49 1   
    17     8    50 1   
    18     9    10 1   
    19     9    11 1   
    20     9    51 1   
    21    11    12 1   
    22    11    52 1   
    23    11    53 1   
    24    12    54 1   
    25    13    14 1   
    26    13    22 1   
    27    13    55 1   
    28    14    15 1   
    29    14    19 1   
    30    14    56 1   
    31    15    16 1   
    32    15    20 1   
    33    15    57 1   
    34    16    17 1   
    35    16    21 1   
    36    16    58 1   
    37    17    18 1   
    38    17    22 1   
    39    17    59 1   
    40    18    60 1   
    41    18    61 1   
    42    18    62 1   
    43    19    63 1   
    44    20    64 1   
    45    21    65 1   
    46    23    24 1   
    47    23    32 1   
    48    23    66 1   
    49    23    89 1   
    50    24    25 1   
    51    24    30 1   
    52    24    67 1   
    53    25    26 1   
    54    25    31 1   
    55    25    68 1   
    56    26    27 1   
    57    26    69 1   
    58    27    28 1   
    59    27    32 1   
    60    27    70 1   
    61    28    33 1   
    62    28    71 1   
    63    28    72 1   
    64    29    73 1   
    65    29    74 1   
    66    29    75 1   
    67    29    90 1   
    68    30    76 1   
    69    30    90 1   
    70    31    35 1   
    71    33    77 1   
    72    34    90 2   
    73    35    36 1   
    74    35    44 1   
    75    35    78 1   
    76    36    37 1   
    77    36    41 1   
    78    36    79 1   
    79    37    38 1   
    80    37    42 1   
    81    37    80 1   
    82    38    39 1   
    83    38    43 1   
    84    38    81 1   
    85    39    40 1   
    86    39    44 1   
    87    39    82 1   
    88    40    83 1   
    89    40    84 1   
    90    40    85 1   
    91    41    86 1   
    92    42    87 1   
    93    43    88 1   
    94    89    91 1   
@<TRIPOS>SUBSTRUCTURE
     1 BDZ         1 TEMP              0 ****  ****    0 ROOT
