@<TRIPOS>MOLECULE
BE2
   16    16     1     0     0
SMALL
abcg2


@<TRIPOS>ATOM
      1 C           -0.3010    -0.0400    -1.6790 c          1 BE2       0.721600
      2 O1           0.7870    -0.1630    -2.2950 o          1 BE2      -0.730500
      3 O2          -1.4220     0.0300    -2.2150 o          1 BE2      -0.730500
      4 C1          -0.2530     0.0080    -0.1610 ca         1 BE2      -0.208600
      5 C2           0.9560     0.0530     0.5740 ca         1 BE2       0.331000
      6 C3           0.8900     0.0370     1.9790 ca         1 BE2      -0.234000
      7 N2           2.1760     0.1600    -0.0370 nv         1 BE2      -1.105000
      8 C4          -0.3190    -0.0080     2.6430 ca         1 BE2      -0.091000
      9 C5          -1.5130    -0.0360     1.9280 ca         1 BE2      -0.206000
     10 C6          -1.4560    -0.0270     0.5440 ca         1 BE2      -0.049000
     11 H3           1.8140     0.0670     2.5470 ha         1 BE2       0.080000
     12 HN21         2.9720    -0.1690     0.4840 hn         1 BE2       0.469500
     13 HN22         2.1520    -0.0670    -1.0230 hn         1 BE2       0.469500
     14 H4          -0.3300    -0.0190     3.7260 ha         1 BE2       0.075000
     15 H5          -2.4650    -0.0690     2.4420 ha         1 BE2       0.084000
     16 H6          -2.3740    -0.0570    -0.0280 ha         1 BE2       0.123000
@<TRIPOS>BOND
     1     1     2 1   
     2     1     3 1   
     3     1     4 1   
     4     4     5 ar  
     5     4    10 ar  
     6     5     6 ar  
     7     5     7 1   
     8     6     8 ar  
     9     6    11 1   
    10     7    12 1   
    11     7    13 1   
    12     8     9 ar  
    13     8    14 1   
    14     9    10 ar  
    15     9    15 1   
    16    10    16 1   
@<TRIPOS>SUBSTRUCTURE
     1 BE2         1 TEMP              0 ****  ****    0 ROOT
