@<TRIPOS>MOLECULE
BE2
   16    16     1     0     0
SMALL
No Charge or Current Charge


@<TRIPOS>ATOM
      1 C           -0.2750    -0.0190    -1.6800 c          1 BE2       0.721600
      2 O1           0.6120    -0.6060    -2.2850 o          1 BE2      -0.730500
      3 O2          -1.2120     0.5300    -2.2450 o          1 BE2      -0.730500
      4 C1          -0.2620    -0.0160    -0.1710 ca         1 BE2      -0.208600
      5 C2           0.9370     0.0760     0.5680 ca         1 BE2       0.331000
      6 C3           0.9070     0.0790     1.9710 ca         1 BE2      -0.234000
      7 N2           2.1520     0.1680    -0.0450 nv         1 BE2      -1.105000
      8 C4          -0.3140    -0.0050     2.6580 ca         1 BE2      -0.091000
      9 C5          -1.5110    -0.0910     1.9340 ca         1 BE2      -0.206000
     10 C6          -1.4880    -0.0950     0.5300 ca         1 BE2      -0.049000
     11 H3           1.8310     0.1500     2.5380 ha         1 BE2       0.080000
     12 HN21         2.9850    -0.0450     0.4990 hn         1 BE2       0.469500
     13 HN22         2.1700    -0.1040    -1.0310 hn         1 BE2       0.469500
     14 H4          -0.3310    -0.0020     3.7460 ha         1 BE2       0.075000
     15 H5          -2.4600    -0.1560     2.4610 ha         1 BE2       0.084000
     16 H6          -2.4270    -0.1650    -0.0170 ha         1 BE2       0.123000
@<TRIPOS>BOND
     1     1     2 1   
     2     1     3 1   
     3     1     4 1   
     4     4     5 ar  
     5     4    10 ar  
     6     5     6 ar  
     7     5     7 1   
     8     6     8 ar  
     9     6    11 1   
    10     7    12 1   
    11     7    13 1   
    12     8     9 ar  
    13     8    14 1   
    14     9    10 ar  
    15     9    15 1   
    16    10    16 1   
@<TRIPOS>SUBSTRUCTURE
     1 BE2         1 TEMP              0 ****  ****    0 ROOT
