@<TRIPOS>MOLECULE
BE3
   88    93     1     0     0
SMALL
abcg2


@<TRIPOS>ATOM
      1 C01         -4.1740     1.6540     0.9040 ca         1 BE3      -0.071300
      2 C02         -5.2390     2.5370     1.0390 ca         1 BE3      -0.116000
      3 C03         -5.7630     2.8210     2.2940 ca         1 BE3      -0.087000
      4 C04         -5.2250     2.2370     3.4320 ca         1 BE3      -0.147000
      5 C05         -4.1620     1.3670     3.2730 ca         1 BE3       0.167000
      6 C06         -3.6260     1.0620     2.0400 ca         1 BE3      -0.131500
      7 C07          4.1780     1.6710    -0.9220 ca         1 BE3      -0.071300
      8 C08          3.6310     1.0730    -2.0550 ca         1 BE3      -0.131500
      9 C09          4.1580     1.3840    -3.2910 ca         1 BE3       0.167000
     10 C10          5.2100     2.2660    -3.4550 ca         1 BE3      -0.147000
     11 C11          5.7460     2.8560    -2.3200 ca         1 BE3      -0.087000
     12 C12          5.2320     2.5660    -1.0620 ca         1 BE3      -0.116000
     13 O14          2.2390     1.3310     0.4220 os         1 BE3      -0.423500
     14 C15          1.6150     0.2920     1.1130 c3         1 BE3       0.070800
     15 C16          0.1210     0.3250     0.7580 c3         1 BE3       0.145300
     16 C17         -0.1050     0.3170    -0.7580 c3         1 BE3       0.145300
     17 C18         -1.5990     0.2760    -1.1130 c3         1 BE3       0.070800
     18 C19         -1.7400     0.4560    -2.6280 c          1 BE3       0.567100
     19 O20         -1.6120     1.5570    -3.1370 o          1 BE3      -0.576600
     20 N21         -1.9940    -0.6690    -3.3120 ns         1 BE3      -0.485400
     21 O22         -2.2260     1.3200    -0.4310 os         1 BE3      -0.423500
     22 C23         -3.6370     1.3050    -0.4570 c3         1 BE3       0.206900
     23 O24          0.5750    -0.7210    -1.4200 oh         1 BE3      -0.713000
     24 O25         -0.5570    -0.7100     1.4290 oh         1 BE3      -0.713000
     25 N28          2.0070    -0.6350     3.3200 ns         1 BE3      -0.485400
     26 C29          2.0420    -0.6890     4.7550 c5         1 BE3       0.160000
     27 C30          0.8030    -1.2440     5.4180 ca         1 BE3      -0.109300
     28 C31          1.1650    -1.9260     6.5740 ca         1 BE3      -0.083300
     29 C32         -0.5220    -1.1230     5.0410 ca         1 BE3      -0.074000
     30 C33         -1.4990    -1.6980     5.8500 ca         1 BE3      -0.109000
     31 C34         -1.1430    -2.3770     7.0100 ca         1 BE3      -0.109000
     32 C35          3.1560    -1.5900     5.3170 c5         1 BE3       0.154300
     33 O36          3.1960    -2.7450     4.5100 oh         1 BE3      -0.664000
     34 C37          0.1940    -2.4980     7.3800 ca         1 BE3      -0.098000
     35 C38          2.6600    -1.9040     6.7360 c5         1 BE3      -0.066100
     36 C39         -2.0340    -0.7310    -4.7470 c5         1 BE3       0.160000
     37 C40         -0.7920    -1.2750    -5.4130 ca         1 BE3      -0.109300
     38 C41         -1.1510    -1.9660    -6.5650 ca         1 BE3      -0.083300
     39 C42          0.5340    -1.1380    -5.0420 ca         1 BE3      -0.074000
     40 C43          1.5130    -1.7060    -5.8540 ca         1 BE3      -0.109000
     41 C44          1.1600    -2.3940    -7.0090 ca         1 BE3      -0.109000
     42 C45         -3.1400    -1.6470    -5.3000 c5         1 BE3       0.154300
     43 O46         -3.1630    -2.7980    -4.4880 oh         1 BE3      -0.664000
     44 C47         -0.1780    -2.5300    -7.3720 ca         1 BE3      -0.098000
     45 C48         -2.6470    -1.9610    -6.7200 c5         1 BE3      -0.066100
     46 F49          3.6250     0.8030    -4.3800 f          1 BE3      -0.181500
     47 F50         -3.6280     0.7920     4.3650 f          1 BE3      -0.181500
     48 H02         -5.6620     3.0090     0.1610 ha         1 BE3       0.117000
     49 H03         -6.5910     3.5100     2.3890 ha         1 BE3       0.117000
     50 H04         -5.6200     2.4520     4.4160 ha         1 BE3       0.131000
     51 H06         -2.7970     0.3690     1.9670 ha         1 BE3       0.147000
     52 H08          2.8100     0.3700    -1.9780 ha         1 BE3       0.147000
     53 H10          5.5980     2.4850    -4.4410 ha         1 BE3       0.131000
     54 H11          6.5670     3.5530    -2.4190 ha         1 BE3       0.117000
     55 H12          5.6540     3.0420    -0.1860 ha         1 BE3       0.117000
     56 H131         4.0340     2.0140     1.1900 h1         1 BE3       0.045700
     57 H132         4.0220     0.3190     0.7150 h1         1 BE3       0.045700
     58 H15          2.0400    -0.6800     0.8150 h1         1 BE3       0.038200
     59 H16         -0.2970     1.2560     1.1470 h1         1 BE3       0.132200
     60 H17          0.3090     1.2460    -1.1560 h1         1 BE3       0.132200
     61 H18         -2.0220    -0.6940    -0.8060 h1         1 BE3       0.038200
     62 H21         -2.0860    -1.5370    -2.8080 hn         1 BE3       0.324500
     63 H231        -4.0150     2.0090    -1.2050 h1         1 BE3       0.045700
     64 H232        -4.0100     0.3120    -0.7390 h1         1 BE3       0.045700
     65 H24          0.2070    -1.5770    -1.1710 ho         1 BE3       0.494000
     66 H25         -0.1770    -1.5660     1.2000 ho         1 BE3       0.494000
     67 H28          2.1000    -1.5060     2.8200 hn         1 BE3       0.324500
     68 H29          2.2150     0.3270     5.1190 h1         1 BE3       0.095700
     69 H32         -0.7990    -0.6160     4.1250 ha         1 BE3       0.133000
     70 H33         -2.5410    -1.6190     5.5710 ha         1 BE3       0.118500
     71 H34         -1.9130    -2.8230     7.6270 ha         1 BE3       0.111000
     72 H35          4.1220    -1.0740     5.3220 h1         1 BE3       0.046700
     73 H36          3.9070    -3.3120     4.8220 ho         1 BE3       0.447000
     74 H37          0.4650    -3.0380     8.2790 ha         1 BE3       0.111500
     75 H381         3.0790    -2.8320     7.1300 hc         1 BE3       0.059200
     76 H382         2.9600    -1.1030     7.4200 hc         1 BE3       0.059200
     77 H39         -2.2200     0.2810    -5.1170 h1         1 BE3       0.095700
     78 H42          0.8090    -0.6240    -4.1300 ha         1 BE3       0.133000
     79 H43          2.5550    -1.6150    -5.5790 ha         1 BE3       0.118500
     80 H44          1.9310    -2.8330    -7.6280 ha         1 BE3       0.111000
     81 H45         -4.1120    -1.1410    -5.3020 h1         1 BE3       0.046700
     82 H46         -3.8770    -3.3690    -4.7880 ho         1 BE3       0.447000
     83 H47         -0.4470    -3.0760    -8.2690 ha         1 BE3       0.111500
     84 H481        -3.0580    -2.8950    -7.1090 hc         1 BE3       0.059200
     85 H482        -2.9590    -1.1660    -7.4050 hc         1 BE3       0.059200
     86 C26          1.7560     0.4840     2.6260 c          1 BE3       0.567100
     87 O27          1.6290     1.5900     3.1260 o          1 BE3      -0.576600
     88 C13          3.6500     1.3150     0.4410 c3         1 BE3       0.206900
@<TRIPOS>BOND
     1     1     2 ar  
     2     1     6 ar  
     3     1    22 1   
     4     2     3 ar  
     5     2    48 1   
     6     3     4 ar  
     7     3    49 1   
     8     4     5 ar  
     9     4    50 1   
    10     5     6 ar  
    11     5    47 1   
    12     6    51 1   
    13     7     8 ar  
    14     7    12 ar  
    15     7    88 1   
    16     8     9 ar  
    17     8    52 1   
    18     9    10 ar  
    19     9    46 1   
    20    10    11 ar  
    21    10    53 1   
    22    11    12 ar  
    23    11    54 1   
    24    12    55 1   
    25    13    14 1   
    26    13    88 1   
    27    14    15 1   
    28    14    58 1   
    29    14    86 1   
    30    15    16 1   
    31    15    24 1   
    32    15    59 1   
    33    16    17 1   
    34    16    23 1   
    35    16    60 1   
    36    17    18 1   
    37    17    21 1   
    38    17    61 1   
    39    18    19 2   
    40    18    20 1   
    41    20    36 1   
    42    20    62 1   
    43    21    22 1   
    44    22    63 1   
    45    22    64 1   
    46    23    65 1   
    47    24    66 1   
    48    25    26 1   
    49    25    67 1   
    50    25    86 1   
    51    26    27 1   
    52    26    32 1   
    53    26    68 1   
    54    27    28 ar  
    55    27    29 ar  
    56    28    34 ar  
    57    28    35 1   
    58    29    30 ar  
    59    29    69 1   
    60    30    31 ar  
    61    30    70 1   
    62    31    34 ar  
    63    31    71 1   
    64    32    33 1   
    65    32    35 1   
    66    32    72 1   
    67    33    73 1   
    68    34    74 1   
    69    35    75 1   
    70    35    76 1   
    71    36    37 1   
    72    36    42 1   
    73    36    77 1   
    74    37    38 ar  
    75    37    39 ar  
    76    38    44 ar  
    77    38    45 1   
    78    39    40 ar  
    79    39    78 1   
    80    40    41 ar  
    81    40    79 1   
    82    41    44 ar  
    83    41    80 1   
    84    42    43 1   
    85    42    45 1   
    86    42    81 1   
    87    43    82 1   
    88    44    83 1   
    89    45    84 1   
    90    45    85 1   
    91    56    88 1   
    92    57    88 1   
    93    86    87 2   
@<TRIPOS>SUBSTRUCTURE
     1 BE3         1 TEMP              0 ****  ****    0 ROOT
