@<TRIPOS>MOLECULE
BE3
   88    93     1     0     0
SMALL
No Charge or Current Charge


@<TRIPOS>ATOM
      1 C01         -4.0650     1.7850     0.7810 ca         1 BE3      -0.071300
      2 C02         -4.7230     2.9920     0.4680 ca         1 BE3      -0.116000
      3 C03         -5.0990     3.8840     1.4890 ca         1 BE3      -0.087000
      4 C04         -4.8170     3.5740     2.8310 ca         1 BE3      -0.147000
      5 C05         -4.1610     2.3740     3.1460 ca         1 BE3       0.167000
      6 C06         -3.7870     1.4810     2.1300 ca         1 BE3      -0.131500
      7 C07          4.0620     1.8120    -0.7920 ca         1 BE3      -0.071300
      8 C08          3.7870     1.5010    -2.1390 ca         1 BE3      -0.131500
      9 C09          4.1550     2.3910    -3.1590 ca         1 BE3       0.167000
     10 C10          4.8010     3.5980    -2.8480 ca         1 BE3      -0.147000
     11 C11          5.0800     3.9160    -1.5070 ca         1 BE3      -0.087000
     12 C12          4.7100     3.0250    -0.4830 ca         1 BE3      -0.116000
     13 O14          2.2220     0.7240     0.2950 os         1 BE3      -0.423500
     14 C15          1.6690    -0.3310     1.1240 c3         1 BE3       0.070800
     15 C16          0.1570    -0.4610     0.7710 c3         1 BE3       0.145300
     16 C17         -0.1440    -0.4660    -0.7720 c3         1 BE3       0.145300
     17 C18         -1.6570    -0.3480    -1.1250 c3         1 BE3       0.070800
     18 C19         -1.8260    -0.0420    -2.6410 c          1 BE3       0.567100
     19 O20         -1.7550     1.0930    -3.1010 o          1 BE3      -0.576600
     20 N21         -2.1390    -1.1350    -3.4250 ns         1 BE3      -0.485400
     21 O22         -2.2170     0.7060    -0.3010 os         1 BE3      -0.423500
     22 C23         -3.6520     0.8140    -0.3170 c3         1 BE3       0.206900
     23 O24          0.4200    -1.6480    -1.3910 oh         1 BE3      -0.713000
     24 O25         -0.3990    -1.6460     1.3950 oh         1 BE3      -0.713000
     25 N28          2.1550    -1.1040     3.4280 ns         1 BE3      -0.485400
     26 C29          2.3080    -0.9130     4.8750 c5         1 BE3       0.160000
     27 C30          1.0570    -1.1500     5.6860 ca         1 BE3      -0.109300
     28 C31          1.2870    -1.9880     6.7590 ca         1 BE3      -0.083300
     29 C32         -0.2190    -0.6080     5.4550 ca         1 BE3      -0.074000
     30 C33         -1.2690    -0.9360     6.3350 ca         1 BE3      -0.109000
     31 C34         -1.0330    -1.7920     7.4310 ca         1 BE3      -0.109000
     32 C35          3.2290    -2.1270     5.3710 c5         1 BE3       0.154300
     33 O36          3.1350    -3.3030     4.5430 oh         1 BE3      -0.664000
     34 C37          0.2540    -2.3230     7.6490 ca         1 BE3      -0.098000
     35 C38          2.7220    -2.4430     6.8340 c5         1 BE3      -0.066100
     36 C39         -2.2940    -0.9530    -4.8730 c5         1 BE3       0.160000
     37 C40         -1.0420    -1.1850    -5.6840 ca         1 BE3      -0.109300
     38 C41         -1.2660    -2.0290    -6.7530 ca         1 BE3      -0.083300
     39 C42          0.2310    -0.6330    -5.4560 ca         1 BE3      -0.074000
     40 C43          1.2830    -0.9590    -6.3350 ca         1 BE3      -0.109000
     41 C44          1.0520    -1.8220    -7.4270 ca         1 BE3      -0.109000
     42 C45         -3.2070    -2.1750    -5.3630 c5         1 BE3       0.154300
     43 O46         -3.1050    -3.3460    -4.5290 oh         1 BE3      -0.664000
     44 C47         -0.2320    -2.3620    -7.6420 ca         1 BE3      -0.098000
     45 C48         -2.6990    -2.4940    -6.8250 c5         1 BE3      -0.066100
     46 F49          3.8840     2.0860    -4.4470 f          1 BE3      -0.181500
     47 F50         -3.8880     2.0760     4.4350 f          1 BE3      -0.181500
     48 H02         -4.9430     3.2420    -0.5690 ha         1 BE3       0.117000
     49 H03         -5.6060     4.8140     1.2400 ha         1 BE3       0.117000
     50 H04         -5.1040     4.2600     3.6240 ha         1 BE3       0.131000
     51 H06         -3.2770     0.5570     2.3880 ha         1 BE3       0.147000
     52 H08          3.2830     0.5710    -2.3940 ha         1 BE3       0.147000
     53 H10          5.0840     4.2820    -3.6440 ha         1 BE3       0.131000
     54 H11          5.5800     4.8500    -1.2620 ha         1 BE3       0.117000
     55 H12          4.9280     3.2810     0.5530 ha         1 BE3       0.117000
     56 H131         4.0080     1.2070     1.2850 h1         1 BE3       0.045700
     57 H132         4.1290    -0.1300     0.1190 h1         1 BE3       0.045700
     58 H15          2.1730    -1.2820     0.9020 h1         1 BE3       0.038200
     59 H16         -0.3240     0.4360     1.1890 h1         1 BE3       0.132200
     60 H17          0.3310     0.4340    -1.1930 h1         1 BE3       0.132200
     61 H18         -2.1530    -1.3010    -0.8990 h1         1 BE3       0.038200
     62 H21         -2.2260    -2.0440    -2.9870 hn         1 BE3       0.324500
     63 H231        -4.0070     1.1720    -1.2930 h1         1 BE3       0.045700
     64 H232        -4.1180    -0.1600    -0.1210 h1         1 BE3       0.045700
     65 H24         -0.1420    -2.4160    -1.1440 ho         1 BE3       0.494000
     66 H25          0.1690    -2.4100     1.1500 ho         1 BE3       0.494000
     67 H28          2.2480    -2.0140     2.9940 hn         1 BE3       0.324500
     68 H29          2.7650     0.0500     5.1430 h1         1 BE3       0.095700
     69 H32         -0.3970     0.0550     4.6120 ha         1 BE3       0.133000
     70 H33         -2.2630    -0.5260     6.1700 ha         1 BE3       0.118500
     71 H34         -1.8450    -2.0420     8.1100 ha         1 BE3       0.111000
     72 H35          4.2790    -1.8040     5.3990 h1         1 BE3       0.046700
     73 H36          3.7050    -3.9880     4.9560 ho         1 BE3       0.447000
     74 H37          0.4430    -2.9800     8.4940 ha         1 BE3       0.111500
     75 H381         2.8230    -3.5010     7.1010 hc         1 BE3       0.059200
     76 H382         3.2790    -1.8640     7.5790 hc         1 BE3       0.059200
     77 H39         -2.7560     0.0070    -5.1460 h1         1 BE3       0.095700
     78 H42          0.4060     0.0350    -4.6160 ha         1 BE3       0.133000
     79 H43          2.2740    -0.5420    -6.1720 ha         1 BE3       0.118500
     80 H44          1.8650    -2.0700    -8.1050 ha         1 BE3       0.111000
     81 H45         -4.2590    -1.8580    -5.3920 h1         1 BE3       0.046700
     82 H46         -3.6710    -4.0370    -4.9390 ho         1 BE3       0.447000
     83 H47         -0.4170    -3.0250    -8.4840 ha         1 BE3       0.111500
     84 H481        -2.7930    -3.5540    -7.0860 hc         1 BE3       0.059200
     85 H482        -3.2600    -1.9220    -7.5720 hc         1 BE3       0.059200
     86 C26          1.8350    -0.0160     2.6390 c          1 BE3       0.567100
     87 O27          1.7570     1.1200     3.0930 o          1 BE3      -0.576600
     88 C13          3.6550     0.8430     0.3110 c3         1 BE3       0.206900
@<TRIPOS>BOND
     1     1     2 ar  
     2     1     6 ar  
     3     1    22 1   
     4     2     3 ar  
     5     2    48 1   
     6     3     4 ar  
     7     3    49 1   
     8     4     5 ar  
     9     4    50 1   
    10     5     6 ar  
    11     5    47 1   
    12     6    51 1   
    13     7     8 ar  
    14     7    12 ar  
    15     7    88 1   
    16     8     9 ar  
    17     8    52 1   
    18     9    10 ar  
    19     9    46 1   
    20    10    11 ar  
    21    10    53 1   
    22    11    12 ar  
    23    11    54 1   
    24    12    55 1   
    25    13    14 1   
    26    13    88 1   
    27    14    15 1   
    28    14    58 1   
    29    14    86 1   
    30    15    16 1   
    31    15    24 1   
    32    15    59 1   
    33    16    17 1   
    34    16    23 1   
    35    16    60 1   
    36    17    18 1   
    37    17    21 1   
    38    17    61 1   
    39    18    19 2   
    40    18    20 1   
    41    20    36 1   
    42    20    62 1   
    43    21    22 1   
    44    22    63 1   
    45    22    64 1   
    46    23    65 1   
    47    24    66 1   
    48    25    26 1   
    49    25    67 1   
    50    25    86 1   
    51    26    27 1   
    52    26    32 1   
    53    26    68 1   
    54    27    28 ar  
    55    27    29 ar  
    56    28    34 ar  
    57    28    35 1   
    58    29    30 ar  
    59    29    69 1   
    60    30    31 ar  
    61    30    70 1   
    62    31    34 ar  
    63    31    71 1   
    64    32    33 1   
    65    32    35 1   
    66    32    72 1   
    67    33    73 1   
    68    34    74 1   
    69    35    75 1   
    70    35    76 1   
    71    36    37 1   
    72    36    42 1   
    73    36    77 1   
    74    37    38 ar  
    75    37    39 ar  
    76    38    44 ar  
    77    38    45 1   
    78    39    40 ar  
    79    39    78 1   
    80    40    41 ar  
    81    40    79 1   
    82    41    44 ar  
    83    41    80 1   
    84    42    43 1   
    85    42    45 1   
    86    42    81 1   
    87    43    82 1   
    88    44    83 1   
    89    45    84 1   
    90    45    85 1   
    91    56    88 1   
    92    57    88 1   
    93    86    87 2   
@<TRIPOS>SUBSTRUCTURE
     1 BE3         1 TEMP              0 ****  ****    0 ROOT
