@<TRIPOS>MOLECULE
BE4
   88    93     1     0     0
SMALL
No Charge or Current Charge


@<TRIPOS>ATOM
      1 C01          3.4790     0.0560    -2.4130 ca         1 BE4      -0.137300
      2 C02          4.0030     1.3650    -2.4040 ca         1 BE4      -0.035500
      3 C03          4.1020     2.0930    -3.6030 ca         1 BE4      -0.170500
      4 C04          3.6770     1.5170    -4.8100 ca         1 BE4       0.197000
      5 C05          3.1510     0.2190    -4.8280 ca         1 BE4      -0.199000
      6 C06          3.0480    -0.5060    -3.6330 ca         1 BE4       0.195500
      7 C07         -3.6980     0.8930     2.0710 ca         1 BE4      -0.137300
      8 C08         -4.0400     0.3520     3.3290 ca         1 BE4       0.195500
      9 C09         -3.9990     1.1480     4.4830 ca         1 BE4      -0.199000
     10 C10         -3.6110     2.4900     4.3890 ca         1 BE4       0.197000
     11 C11         -3.2670     3.0420     3.1470 ca         1 BE4      -0.170500
     12 C12         -3.3110     2.2470     1.9880 ca         1 BE4      -0.035500
     13 O14         -2.3710    -0.0310     0.3110 os         1 BE4      -0.435000
     14 C15         -2.1040    -1.0510    -0.6910 c3         1 BE4       0.073300
     15 C16         -0.5660    -1.3450    -0.6960 c3         1 BE4       0.137300
     16 C17          0.1430    -1.2060     0.7020 c3         1 BE4       0.137300
     17 C18          1.7090    -1.1910     0.6380 c3         1 BE4       0.073300
     18 C19          2.3710    -0.6620     1.9600 c          1 BE4       0.571100
     19 O20          3.4430    -0.0660     1.9750 o          1 BE4      -0.585100
     20 N21          1.6240    -0.8310     3.1100 ns         1 BE4      -0.484900
     21 O22          2.0980    -0.3990    -0.5170 os         1 BE4      -0.435000
     22 C23          3.3670    -0.7240    -1.1110 c3         1 BE4       0.222900
     23 O24         -0.3110    -2.2580     1.5930 oh         1 BE4      -0.708500
     24 O25         -0.3230    -2.6630    -1.2470 oh         1 BE4      -0.708500
     25 N28         -2.0630    -1.3470    -3.1640 ns         1 BE4      -0.484900
     26 C29         -2.3750    -0.9510    -4.5420 c5         1 BE4       0.161000
     27 C30         -1.3540    -0.0460    -5.1880 ca         1 BE4      -0.107800
     28 C31         -0.9920    -0.4870    -6.4440 ca         1 BE4      -0.080300
     29 C32         -0.8050     1.1310    -4.6500 ca         1 BE4      -0.074500
     30 C33          0.1270     1.8600    -5.4160 ca         1 BE4      -0.111000
     31 C34          0.4920     1.4110    -6.7020 ca         1 BE4      -0.105000
     32 C35         -2.2120    -2.2750    -5.4280 c5         1 BE4       0.154800
     33 O36         -1.2820    -3.2290    -4.8830 oh         1 BE4      -0.660000
     34 C37         -0.0680     0.2280    -7.2230 ca         1 BE4      -0.096500
     35 C38         -1.7060    -1.7560    -6.8330 c5         1 BE4      -0.067100
     36 C39          2.1760    -0.3840     4.3960 c5         1 BE4       0.161000
     37 C40          1.1580    -0.2490     5.4990 ca         1 BE4      -0.107800
     38 C41          1.5910    -0.8310     6.6740 ca         1 BE4      -0.080300
     39 C42         -0.0870     0.3990     5.4280 ca         1 BE4      -0.074500
     40 C43         -0.8970     0.4420     6.5800 ca         1 BE4      -0.111000
     41 C44         -0.4560    -0.1550     7.7800 ca         1 BE4      -0.105000
     42 C45          3.0880    -1.5740     4.9640 c5         1 BE4       0.154800
     43 O46          2.6750    -2.8860     4.5360 oh         1 BE4      -0.660000
     44 C47          0.7980    -0.7960     7.8310 ca         1 BE4      -0.096500
     45 C48          2.9590    -1.4490     6.5340 c5         1 BE4      -0.067100
     46 F49         -3.5660     3.2550     5.5010 f          1 BE4      -0.172000
     47 F50          3.7770     2.2180    -5.9600 f          1 BE4      -0.172000
     48 F51          2.5340    -1.7560    -3.6680 f          1 BE4      -0.177500
     49 F52         -4.4120    -0.9420     3.4430 f          1 BE4      -0.177500
     50 H02          4.3310     1.8160    -1.4690 ha         1 BE4       0.137000
     51 H03          4.5070     3.1010    -3.5990 ha         1 BE4       0.140000
     52 H05          2.8190    -0.2220    -5.7630 ha         1 BE4       0.149500
     53 H09         -4.2660     0.7230     5.4460 ha         1 BE4       0.149500
     54 H11         -2.9660     4.0850     3.0830 ha         1 BE4       0.140000
     55 H12         -3.0390     2.6780     1.0260 ha         1 BE4       0.137000
     56 H131        -4.3910     0.4960     0.0720 h1         1 BE4       0.048950
     57 H132        -4.1020    -0.9650     1.0350 h1         1 BE4       0.048950
     58 H15         -2.6210    -1.9800    -0.4180 h1         1 BE4       0.051200
     59 H16         -0.1230    -0.5820    -1.3540 h1         1 BE4       0.116700
     60 H17         -0.1410    -0.2250     1.1080 h1         1 BE4       0.116700
     61 H18          2.0430    -2.2290     0.5090 h1         1 BE4       0.051200
     62 H21          0.7630    -1.3620     3.0240 hn         1 BE4       0.336000
     63 H231         4.1980    -0.4540    -0.4480 h1         1 BE4       0.048950
     64 H232         3.4390    -1.8000    -1.3160 h1         1 BE4       0.048950
     65 H24          0.1090    -3.1000     1.3050 ho         1 BE4       0.497500
     66 H25         -0.8460    -3.3090    -0.7200 ho         1 BE4       0.497500
     67 H28         -1.3910    -2.0780    -2.9450 hn         1 BE4       0.336000
     68 H29         -3.3860    -0.5340    -4.6610 h1         1 BE4       0.094700
     69 H32         -1.0950     1.4790    -3.6610 ha         1 BE4       0.121500
     70 H33          0.5630     2.7720    -5.0150 ha         1 BE4       0.114000
     71 H34          1.2090     1.9770    -7.2910 ha         1 BE4       0.112500
     72 H35         -3.1900    -2.7650    -5.5390 h1         1 BE4       0.047700
     73 H36         -1.2390    -3.9780    -5.5160 ho         1 BE4       0.445000
     74 H37          0.2090    -0.1230    -8.2140 ha         1 BE4       0.112500
     75 H381        -1.0560    -2.4750    -7.3430 hc         1 BE4       0.059700
     76 H382        -2.5470    -1.5440    -7.5030 hc         1 BE4       0.059700
     77 H39          2.7510     0.5490     4.3150 h1         1 BE4       0.094700
     78 H42         -0.4210     0.8630     4.5020 ha         1 BE4       0.121500
     79 H43         -1.8620     0.9410     6.5470 ha         1 BE4       0.114000
     80 H44         -1.0830    -0.1180     8.6670 ha         1 BE4       0.112500
     81 H45          4.1310    -1.4180     4.6570 h1         1 BE4       0.047700
     82 H46          3.2810    -3.5290     4.9640 ho         1 BE4       0.445000
     83 H47          1.1460    -1.2540     8.7550 ha         1 BE4       0.112500
     84 H481         3.0500    -2.4130     7.0480 hc         1 BE4       0.059700
     85 H482         3.7320    -0.7890     6.9430 hc         1 BE4       0.059700
     86 C26         -2.6170    -0.6410    -2.1140 c          1 BE4       0.571100
     87 O27         -3.4100     0.2750    -2.3020 o          1 BE4      -0.585100
     88 C13         -3.7190     0.0390     0.8090 c3         1 BE4       0.222900
@<TRIPOS>BOND
     1     1     2 ar  
     2     1     6 ar  
     3     1    22 1   
     4     2     3 ar  
     5     2    50 1   
     6     3     4 ar  
     7     3    51 1   
     8     4     5 ar  
     9     4    47 1   
    10     5     6 ar  
    11     5    52 1   
    12     6    48 1   
    13     7     8 ar  
    14     7    12 ar  
    15     7    88 1   
    16     8     9 ar  
    17     8    49 1   
    18     9    10 ar  
    19     9    53 1   
    20    10    11 ar  
    21    10    46 1   
    22    11    12 ar  
    23    11    54 1   
    24    12    55 1   
    25    13    14 1   
    26    13    88 1   
    27    14    15 1   
    28    14    58 1   
    29    14    86 1   
    30    15    16 1   
    31    15    24 1   
    32    15    59 1   
    33    16    17 1   
    34    16    23 1   
    35    16    60 1   
    36    17    18 1   
    37    17    21 1   
    38    17    61 1   
    39    18    19 2   
    40    18    20 1   
    41    20    36 1   
    42    20    62 1   
    43    21    22 1   
    44    22    63 1   
    45    22    64 1   
    46    23    65 1   
    47    24    66 1   
    48    25    26 1   
    49    25    67 1   
    50    25    86 1   
    51    26    27 1   
    52    26    32 1   
    53    26    68 1   
    54    27    28 ar  
    55    27    29 ar  
    56    28    34 ar  
    57    28    35 1   
    58    29    30 ar  
    59    29    69 1   
    60    30    31 ar  
    61    30    70 1   
    62    31    34 ar  
    63    31    71 1   
    64    32    33 1   
    65    32    35 1   
    66    32    72 1   
    67    33    73 1   
    68    34    74 1   
    69    35    75 1   
    70    35    76 1   
    71    36    37 1   
    72    36    42 1   
    73    36    77 1   
    74    37    38 ar  
    75    37    39 ar  
    76    38    44 ar  
    77    38    45 1   
    78    39    40 ar  
    79    39    78 1   
    80    40    41 ar  
    81    40    79 1   
    82    41    44 ar  
    83    41    80 1   
    84    42    43 1   
    85    42    45 1   
    86    42    81 1   
    87    43    82 1   
    88    44    83 1   
    89    45    84 1   
    90    45    85 1   
    91    56    88 1   
    92    57    88 1   
    93    86    87 2   
@<TRIPOS>SUBSTRUCTURE
     1 BE4         1 TEMP              0 ****  ****    0 ROOT
