@<TRIPOS>MOLECULE
BE4
   88    93     1     0     0
SMALL
bcc


@<TRIPOS>ATOM
      1 C01          3.4160     0.9100    -2.2430 ca         1 BE4      -0.137300
      2 C02          2.4530     1.9070    -2.3500 ca         1 BE4      -0.053500
      3 C03          2.3970     2.7560    -3.4470 ca         1 BE4      -0.188500
      4 C04          3.3310     2.6020    -4.4490 ca         1 BE4       0.161900
      5 C05          4.3130     1.6310    -4.3950 ca         1 BE4      -0.217000
      6 C06          4.3260     0.8100    -3.2860 ca         1 BE4       0.160400
      7 C07         -3.6160     0.8210     1.9730 ca         1 BE4      -0.137300
      8 C08         -4.8690     0.8040     2.5680 ca         1 BE4       0.160400
      9 C09         -5.1890     1.5300     3.6970 ca         1 BE4      -0.217000
     10 C10         -4.1910     2.3120     4.2480 ca         1 BE4       0.161900
     11 C11         -2.9260     2.3780     3.7020 ca         1 BE4      -0.188500
     12 C12         -2.6510     1.6260     2.5670 ca         1 BE4      -0.053500
     13 O14         -2.0280     0.1670     0.3510 os         1 BE4      -0.388600
     14 C15         -1.5880    -0.6900    -0.6550 c3         1 BE4       0.050100
     15 C16         -0.0470    -0.6360    -0.6680 c3         1 BE4       0.114100
     16 C17          0.5470    -0.8050     0.7340 c3         1 BE4       0.114100
     17 C18          2.0920    -0.7650     0.6950 c3         1 BE4       0.050100
     18 C19          2.7290    -0.5320     2.0790 c          1 BE4       0.638100
     19 O20          3.6950     0.2020     2.1960 o          1 BE4      -0.585100
     20 N21          2.1610    -1.1980     3.0970 ns         1 BE4      -0.551900
     21 O22          2.4940     0.2650    -0.1560 os         1 BE4      -0.388600
     22 C23          3.5030    -0.0410    -1.0790 c3         1 BE4       0.199700
     23 O24          0.0940    -1.9850     1.3660 oh         1 BE4      -0.586300
     24 O25          0.4760    -1.5520    -1.5950 oh         1 BE4      -0.586300
     25 N28         -2.2490    -1.1470    -2.9510 ns         1 BE4      -0.551900
     26 C29         -2.4740    -0.8430    -4.3380 c5         1 BE4       0.161000
     27 C30         -1.2300    -0.7070    -5.1860 ca         1 BE4      -0.107800
     28 C31         -1.4960    -1.1690    -6.4710 ca         1 BE4      -0.080300
     29 C32          0.0130    -0.2020    -4.8510 ca         1 BE4      -0.092500
     30 C33          1.0020    -0.1610    -5.8310 ca         1 BE4      -0.129000
     31 C34          0.7390    -0.6150    -7.1190 ca         1 BE4      -0.123000
     32 C35         -3.2690    -1.9300    -5.0810 c5         1 BE4       0.131600
     33 O36         -2.7810    -3.1760    -4.6390 oh         1 BE4      -0.597800
     34 C37         -0.5150    -1.1240    -7.4480 ca         1 BE4      -0.114500
     35 C38         -2.9120    -1.6700    -6.5530 c5         1 BE4      -0.067100
     36 C39          2.5620    -1.0760     4.4700 c5         1 BE4       0.161000
     37 C40          1.4780    -0.5650     5.3880 ca         1 BE4      -0.107800
     38 C41          1.6100    -1.1560     6.6400 ca         1 BE4      -0.080300
     39 C42          0.4720     0.3480     5.1300 ca         1 BE4      -0.092500
     40 C43         -0.4150     0.6700     6.1530 ca         1 BE4      -0.129000
     41 C44         -0.2840     0.0860     7.4080 ca         1 BE4      -0.123000
     42 C45          2.9600    -2.4070     5.1370 c5         1 BE4       0.131600
     43 O46          2.0510    -3.3810     4.6820 oh         1 BE4      -0.597800
     44 C47          0.7320    -0.8330     7.6600 ca         1 BE4      -0.114500
     45 C48          2.7740    -2.1090     6.6330 c5         1 BE4      -0.067100
     46 F49         -4.4710     3.0260     5.3460 f          1 BE4      -0.136900
     47 F50          3.2930     3.4130    -5.5160 f          1 BE4      -0.136900
     48 F51          5.2690    -0.1420    -3.2140 f          1 BE4      -0.142400
     49 F52         -5.8220     0.0380     2.0160 f          1 BE4      -0.142400
     50 H02          1.7240     2.0350    -1.5630 ha         1 BE4       0.155000
     51 H03          1.6370     3.5230    -3.5140 ha         1 BE4       0.158000
     52 H05          5.0410     1.5140    -5.1860 ha         1 BE4       0.167500
     53 H09         -6.1810     1.4860     4.1280 ha         1 BE4       0.167500
     54 H11         -2.1660     3.0060     4.1460 ha         1 BE4       0.158000
     55 H12         -1.6590     1.6800     2.1400 ha         1 BE4       0.155000
     56 H131        -4.0550     0.2830    -0.0530 h1         1 BE4       0.048950
     57 H132        -3.5590    -1.0670     0.9660 h1         1 BE4       0.048950
     58 H15         -1.9250    -1.7230    -0.4710 h1         1 BE4       0.051200
     59 H16          0.2380     0.3530    -1.0280 h1         1 BE4       0.116700
     60 H17          0.1850     0.0200     1.3490 h1         1 BE4       0.116700
     61 H18          2.4510    -1.7400     0.3300 h1         1 BE4       0.051200
     62 H21          1.3530    -1.7730     2.8960 hn         1 BE4       0.336000
     63 H231         4.4920     0.0260    -0.6110 h1         1 BE4       0.048950
     64 H232         3.3930    -1.0680    -1.4460 h1         1 BE4       0.048950
     65 H24          0.4760    -2.7580     0.9350 ho         1 BE4       0.398500
     66 H25          0.1980    -2.4460    -1.3690 ho         1 BE4       0.398500
     67 H28         -2.0370    -2.1050    -2.7220 hn         1 BE4       0.336000
     68 H29         -3.0460     0.0870    -4.3920 h1         1 BE4       0.094700
     69 H32          0.2340     0.1410    -3.8490 ha         1 BE4       0.139500
     70 H33          1.9840     0.2200    -5.5820 ha         1 BE4       0.132000
     71 H34          1.5190    -0.5810    -7.8690 ha         1 BE4       0.130500
     72 H35         -4.3440    -1.8360    -4.8940 h1         1 BE4       0.047700
     73 H36         -3.3640    -3.8670    -4.9660 ho         1 BE4       0.406000
     74 H37         -0.7110    -1.4880    -8.4490 ha         1 BE4       0.130500
     75 H381        -3.0330    -2.5560    -7.1780 hc         1 BE4       0.059700
     76 H382        -3.5690    -0.8960    -6.9630 hc         1 BE4       0.059700
     77 H39          3.4220    -0.4020     4.5110 h1         1 BE4       0.094700
     78 H42          0.3670     0.7980     4.1490 ha         1 BE4       0.139500
     79 H43         -1.2180     1.3730     5.9720 ha         1 BE4       0.132000
     80 H44         -0.9830     0.3420     8.1940 ha         1 BE4       0.130500
     81 H45          3.9940    -2.6800     4.8970 h1         1 BE4       0.047700
     82 H46          2.2670    -4.2190     5.1040 ho         1 BE4       0.406000
     83 H47          0.8210    -1.2940     8.6370 ha         1 BE4       0.130500
     84 H481         2.6150    -3.0100     7.2280 hc         1 BE4       0.059700
     85 H482         3.6700    -1.6200     7.0270 hc         1 BE4       0.059700
     86 C26         -2.0830    -0.1980    -2.0200 c          1 BE4       0.638100
     87 O27         -2.2630     0.9930    -2.2200 o          1 BE4      -0.585100
     88 C13         -3.3600    -0.0100     0.7460 c3         1 BE4       0.199700
@<TRIPOS>BOND
     1     1     2 ar  
     2     1     6 ar  
     3     1    22 1   
     4     2     3 ar  
     5     2    50 1   
     6     3     4 ar  
     7     3    51 1   
     8     4     5 ar  
     9     4    47 1   
    10     5     6 ar  
    11     5    52 1   
    12     6    48 1   
    13     7     8 ar  
    14     7    12 ar  
    15     7    88 1   
    16     8     9 ar  
    17     8    49 1   
    18     9    10 ar  
    19     9    53 1   
    20    10    11 ar  
    21    10    46 1   
    22    11    12 ar  
    23    11    54 1   
    24    12    55 1   
    25    13    14 1   
    26    13    88 1   
    27    14    15 1   
    28    14    58 1   
    29    14    86 1   
    30    15    16 1   
    31    15    24 1   
    32    15    59 1   
    33    16    17 1   
    34    16    23 1   
    35    16    60 1   
    36    17    18 1   
    37    17    21 1   
    38    17    61 1   
    39    18    19 2   
    40    18    20 1   
    41    20    36 1   
    42    20    62 1   
    43    21    22 1   
    44    22    63 1   
    45    22    64 1   
    46    23    65 1   
    47    24    66 1   
    48    25    26 1   
    49    25    67 1   
    50    25    86 1   
    51    26    27 1   
    52    26    32 1   
    53    26    68 1   
    54    27    28 ar  
    55    27    29 ar  
    56    28    34 ar  
    57    28    35 1   
    58    29    30 ar  
    59    29    69 1   
    60    30    31 ar  
    61    30    70 1   
    62    31    34 ar  
    63    31    71 1   
    64    32    33 1   
    65    32    35 1   
    66    32    72 1   
    67    33    73 1   
    68    34    74 1   
    69    35    75 1   
    70    35    76 1   
    71    36    37 1   
    72    36    42 1   
    73    36    77 1   
    74    37    38 ar  
    75    37    39 ar  
    76    38    44 ar  
    77    38    45 1   
    78    39    40 ar  
    79    39    78 1   
    80    40    41 ar  
    81    40    79 1   
    82    41    44 ar  
    83    41    80 1   
    84    42    43 1   
    85    42    45 1   
    86    42    81 1   
    87    43    82 1   
    88    44    83 1   
    89    45    84 1   
    90    45    85 1   
    91    56    88 1   
    92    57    88 1   
    93    86    87 2   
@<TRIPOS>SUBSTRUCTURE
     1 BE4         1 TEMP              0 ****  ****    0 ROOT
