@<TRIPOS>MOLECULE
BE5
   88    93     1     0     0
SMALL
abcg2


@<TRIPOS>ATOM
      1 C01          3.4750     0.9970    -2.2940 ca         1 BE5      -0.092300
      2 C02          2.4660     1.8070    -2.8080 ca         1 BE5      -0.076500
      3 C03          2.6670     2.5380    -3.9710 ca         1 BE5      -0.102500
      4 C04          3.8740     2.4760    -4.6510 ca         1 BE5      -0.130000
      5 C05          4.8740     1.6740    -4.1420 ca         1 BE5       0.134000
      6 C06          4.6760     0.9490    -2.9820 ca         1 BE5       0.126000
      7 C07         -3.3650     0.8910     2.5110 ca         1 BE5      -0.092300
      8 C08         -4.2930     0.7540     3.5290 ca         1 BE5       0.126000
      9 C09         -4.2680     1.5660     4.6480 ca         1 BE5       0.134000
     10 C10         -3.3060     2.5460     4.7850 ca         1 BE5      -0.130000
     11 C11         -2.3690     2.6970     3.7740 ca         1 BE5      -0.102500
     12 C12         -2.3980     1.8830     2.6500 ca         1 BE5      -0.076500
     13 O14         -2.4620     0.3240     0.3920 os         1 BE5      -0.432000
     14 C15         -2.1080    -0.6580    -0.5310 c3         1 BE5       0.071800
     15 C16         -0.5700    -0.6610    -0.7050 c3         1 BE5       0.139300
     16 C17          0.1390    -0.4670     0.6380 c3         1 BE5       0.139300
     17 C18          1.6740    -0.5130     0.4950 c3         1 BE5       0.071800
     18 C19          2.2790    -0.0120     1.8120 c          1 BE5       0.570100
     19 O20          2.4540     1.1810     1.9980 o          1 BE5      -0.584600
     20 N21          2.5430    -0.9590     2.7230 ns         1 BE5      -0.483900
     21 O22          2.0190     0.3380    -0.5520 os         1 BE5      -0.432000
     22 C23          3.3210     0.1780    -1.0410 c3         1 BE5       0.215900
     23 O24         -0.2970    -1.3700     1.6210 oh         1 BE5      -0.707500
     24 O25         -0.1510    -1.8350    -1.3700 oh         1 BE5      -0.707500
     25 N28         -2.4030    -1.0770    -2.9150 ns         1 BE5      -0.483900
     26 C29         -2.8720    -0.8840    -4.2580 c5         1 BE5       0.161500
     27 C30         -1.7880    -0.4950    -5.2330 ca         1 BE5      -0.108800
     28 C31         -2.0670    -1.0380    -6.4830 ca         1 BE5      -0.079800
     29 C32         -0.6570     0.2740    -5.0230 ca         1 BE5      -0.074500
     30 C33          0.2030     0.5020    -6.0930 ca         1 BE5      -0.112500
     31 C34         -0.0760    -0.0320    -7.3460 ca         1 BE5      -0.106000
     32 C35         -3.4760    -2.1400    -4.9170 c5         1 BE5       0.155800
     33 O36         -2.6750    -3.2300    -4.5300 oh         1 BE5      -0.660000
     34 C37         -1.2150    -0.8070    -7.5500 ca         1 BE5      -0.096500
     35 C38         -3.3390    -1.8370    -6.4170 c5         1 BE5      -0.067600
     36 C39          2.8800    -0.6540     4.0870 c5         1 BE5       0.161500
     37 C40          1.7100    -0.5050     5.0320 ca         1 BE5      -0.108800
     38 C41          2.0700    -0.9750     6.2900 ca         1 BE5      -0.079800
     39 C42          0.4510     0.0220     4.7990 ca         1 BE5      -0.074500
     40 C43         -0.4540     0.0770     5.8550 ca         1 BE5      -0.112500
     41 C44         -0.0970    -0.3880     7.1160 ca         1 BE5      -0.106000
     42 C45          3.7200    -1.7510     4.7630 c5         1 BE5       0.155800
     43 O46          3.1860    -2.9900     4.3560 oh         1 BE5      -0.660000
     44 C47          1.1700    -0.9190     7.3420 ca         1 BE5      -0.096500
     45 C48          3.4810    -1.4940     6.2590 c5         1 BE5      -0.067600
     46 F49         -5.1930     1.3840     5.5970 f          1 BE5      -0.162500
     47 F50          6.0550     1.5820    -4.7640 f          1 BE5      -0.162500
     48 F51          5.6720     0.1820    -2.5180 f          1 BE5      -0.166500
     49 F52         -5.2410    -0.1900     3.4380 f          1 BE5      -0.166500
     50 H02          1.5160     1.8730    -2.2980 ha         1 BE5       0.137500
     51 H03          1.8740     3.1670    -4.3530 ha         1 BE5       0.126000
     52 H04          4.0400     3.0390    -5.5600 ha         1 BE5       0.136000
     53 H10         -3.2960     3.1740     5.6660 ha         1 BE5       0.136000
     54 H11         -1.6070     3.4580     3.8650 ha         1 BE5       0.126000
     55 H12         -1.6590     2.0260     1.8760 ha         1 BE5       0.137500
     56 H131        -4.4420     0.0030     0.8830 h1         1 BE5       0.050450
     57 H132        -3.2840    -1.0650     1.6720 h1         1 BE5       0.050450
     58 H15         -2.4090    -1.6570    -0.1760 h1         1 BE5       0.050200
     59 H16         -0.2830     0.1660    -1.3570 h1         1 BE5       0.116700
     60 H17         -0.1220     0.5270     1.0060 h1         1 BE5       0.116700
     61 H18          1.9990    -1.5460     0.2890 h1         1 BE5       0.050200
     62 H21          2.3320    -1.9220     2.5110 hn         1 BE5       0.334500
     63 H231         4.0670     0.4930    -0.2990 h1         1 BE5       0.050450
     64 H232         3.5230    -0.8780    -1.2640 h1         1 BE5       0.050450
     65 H24         -0.0260    -2.2650     1.3910 ho         1 BE5       0.497500
     66 H25         -0.4570    -2.6150    -0.8910 ho         1 BE5       0.497500
     67 H28         -1.6160    -1.6970    -2.7810 hn         1 BE5       0.334500
     68 H29         -3.6400    -0.1060    -4.2370 h1         1 BE5       0.094200
     69 H32         -0.4360     0.6810    -4.0430 ha         1 BE5       0.121500
     70 H33          1.0990     1.0920    -5.9460 ha         1 BE5       0.114500
     71 H34          0.6030     0.1500    -8.1690 ha         1 BE5       0.112000
     72 H35         -4.5200    -2.2850    -4.6200 h1         1 BE5       0.048700
     73 H36         -3.0100    -4.0220    -4.9610 ho         1 BE5       0.445000
     74 H37         -1.4200    -1.2310    -8.5250 ha         1 BE5       0.113000
     75 H381        -3.3270    -2.7400    -7.0320 hc         1 BE5       0.059950
     76 H382        -4.1890    -1.2360    -6.7550 hc         1 BE5       0.059950
     77 H39          3.4650     0.2710     4.0950 h1         1 BE5       0.094200
     78 H42          0.1570     0.3740     3.8190 ha         1 BE5       0.121500
     79 H43         -1.4440     0.4830     5.6890 ha         1 BE5       0.114500
     80 H44         -0.8130    -0.3420     7.9260 ha         1 BE5       0.112000
     81 H45          4.7780    -1.6670     4.4940 h1         1 BE5       0.048700
     82 H46          3.7850    -3.6890     4.6340 ho         1 BE5       0.445000
     83 H47          1.4410    -1.2890     8.3230 ha         1 BE5       0.113000
     84 H481         3.6400    -2.3860     6.8680 hc         1 BE5       0.059950
     85 H482         4.1770    -0.7300     6.6200 hc         1 BE5       0.059950
     86 C26         -2.8460    -0.3830    -1.8540 c          1 BE5       0.570100
     87 O27         -3.7680     0.4150    -1.8940 o          1 BE5      -0.584600
     88 C13         -3.4410    -0.0360     1.3270 c3         1 BE5       0.215900
@<TRIPOS>BOND
     1     1     2 ar  
     2     1     6 ar  
     3     1    22 1   
     4     2     3 ar  
     5     2    50 1   
     6     3     4 ar  
     7     3    51 1   
     8     4     5 ar  
     9     4    52 1   
    10     5     6 ar  
    11     5    47 1   
    12     6    48 1   
    13     7     8 ar  
    14     7    12 ar  
    15     7    88 1   
    16     8     9 ar  
    17     8    49 1   
    18     9    10 ar  
    19     9    46 1   
    20    10    11 ar  
    21    10    53 1   
    22    11    12 ar  
    23    11    54 1   
    24    12    55 1   
    25    13    14 1   
    26    13    88 1   
    27    14    15 1   
    28    14    58 1   
    29    14    86 1   
    30    15    16 1   
    31    15    24 1   
    32    15    59 1   
    33    16    17 1   
    34    16    23 1   
    35    16    60 1   
    36    17    18 1   
    37    17    21 1   
    38    17    61 1   
    39    18    19 2   
    40    18    20 1   
    41    20    36 1   
    42    20    62 1   
    43    21    22 1   
    44    22    63 1   
    45    22    64 1   
    46    23    65 1   
    47    24    66 1   
    48    25    26 1   
    49    25    67 1   
    50    25    86 1   
    51    26    27 1   
    52    26    32 1   
    53    26    68 1   
    54    27    28 ar  
    55    27    29 ar  
    56    28    34 ar  
    57    28    35 1   
    58    29    30 ar  
    59    29    69 1   
    60    30    31 ar  
    61    30    70 1   
    62    31    34 ar  
    63    31    71 1   
    64    32    33 1   
    65    32    35 1   
    66    32    72 1   
    67    33    73 1   
    68    34    74 1   
    69    35    75 1   
    70    35    76 1   
    71    36    37 1   
    72    36    42 1   
    73    36    77 1   
    74    37    38 ar  
    75    37    39 ar  
    76    38    44 ar  
    77    38    45 1   
    78    39    40 ar  
    79    39    78 1   
    80    40    41 ar  
    81    40    79 1   
    82    41    44 ar  
    83    41    80 1   
    84    42    43 1   
    85    42    45 1   
    86    42    81 1   
    87    43    82 1   
    88    44    83 1   
    89    45    84 1   
    90    45    85 1   
    91    56    88 1   
    92    57    88 1   
    93    86    87 2   
@<TRIPOS>SUBSTRUCTURE
     1 BE5         1 TEMP              0 ****  ****    0 ROOT
