@<TRIPOS>MOLECULE
BE5
   88    93     1     0     0
SMALL
No Charge or Current Charge


@<TRIPOS>ATOM
      1 C01          3.5470     1.0500    -2.3980 ca         1 BE5      -0.092300
      2 C02          3.0500     2.3670    -2.3060 ca         1 BE5      -0.076500
      3 C03          2.9150     3.1630    -3.4580 ca         1 BE5      -0.102500
      4 C04          3.2780     2.6500    -4.7150 ca         1 BE5      -0.130000
      5 C05          3.7770     1.3420    -4.8160 ca         1 BE5       0.134000
      6 C06          3.9100     0.5410    -3.6650 ca         1 BE5       0.126000
      7 C07         -3.2840     0.0350     2.7000 ca         1 BE5      -0.092300
      8 C08         -2.9590    -0.6330     3.9010 ca         1 BE5       0.126000
      9 C09         -2.9930     0.0590     5.1280 ca         1 BE5       0.134000
     10 C10         -3.3430     1.4180     5.1650 ca         1 BE5      -0.130000
     11 C11         -3.6560     2.0910     3.9710 ca         1 BE5      -0.102500
     12 C12         -3.6260     1.4030     2.7450 ca         1 BE5      -0.076500
     13 O14         -2.0270    -0.3540     0.6980 os         1 BE5      -0.432000
     14 C15         -1.7150    -1.1120    -0.5040 c3         1 BE5       0.071800
     15 C16         -0.1600    -1.0960    -0.6940 c3         1 BE5       0.139300
     16 C17          0.6670    -1.2110     0.6400 c3         1 BE5       0.139300
     17 C18          2.1940    -0.8870     0.5060 c3         1 BE5       0.071800
     18 C19          2.8010    -0.4300     1.8740 c          1 BE5       0.570100
     19 O20          3.5610     0.5260     1.9850 o          1 BE5      -0.584600
     20 N21          2.3680    -1.1430     2.9750 ns         1 BE5      -0.483900
     21 O22          2.3610     0.1120    -0.5380 os         1 BE5      -0.432000
     22 C23          3.6670     0.2000    -1.1360 c3         1 BE5       0.215900
     23 O24          0.4970    -2.5280     1.2200 oh         1 BE5      -0.707500
     24 O25          0.2390    -2.1430    -1.6160 oh         1 BE5      -0.707500
     25 N28         -1.8390    -0.7430    -2.9700 ns         1 BE5      -0.483900
     26 C29         -2.4860    -0.2750    -4.2020 c5         1 BE5       0.161500
     27 C30         -1.5590    -0.1470    -5.3830 ca         1 BE5      -0.108800
     28 C31         -2.0940    -0.7110    -6.5230 ca         1 BE5      -0.079800
     29 C32         -0.3000     0.4790    -5.4070 ca         1 BE5      -0.074500
     30 C33          0.4160     0.5170    -6.6190 ca         1 BE5      -0.112500
     31 C34         -0.1290    -0.0630    -7.7840 ca         1 BE5      -0.106000
     32 C35         -3.4610    -1.4450    -4.7040 c5         1 BE5       0.155800
     33 O36         -3.0370    -2.7670    -4.3210 oh         1 BE5      -0.660000
     34 C37         -1.3950    -0.6800    -7.7400 ca         1 BE5      -0.096500
     35 C38         -3.4570    -1.3080    -6.2790 c5         1 BE5      -0.067600
     36 C39          2.7430    -0.6900     4.3190 c5         1 BE5       0.161500
     37 C40          1.7100     0.1730     5.0030 ca         1 BE5      -0.108800
     38 C41          1.4530    -0.2500     6.2910 ca         1 BE5      -0.079800
     39 C42          1.0540     1.2950     4.4670 ca         1 BE5      -0.074500
     40 C43          0.1250     1.9870     5.2680 ca         1 BE5      -0.112500
     41 C44         -0.1320     1.5580     6.5870 ca         1 BE5      -0.106000
     42 C45          2.7120    -1.9940     5.2480 c5         1 BE5       0.155800
     43 O46          1.8050    -3.0140     4.7900 oh         1 BE5      -0.660000
     44 C47          0.5340     0.4310     7.1060 ca         1 BE5      -0.096500
     45 C48          2.2670    -1.4610     6.6680 c5         1 BE5      -0.067600
     46 F49         -2.6970    -0.5830     6.2810 f          1 BE5      -0.162500
     47 F50          4.1290     0.8570    -6.0290 f          1 BE5      -0.162500
     48 F51          4.3920    -0.7200    -3.7830 f          1 BE5      -0.166500
     49 F52         -2.6210    -1.9450     3.8820 f          1 BE5      -0.166500
     50 H02          2.7620     2.7720    -1.3370 ha         1 BE5       0.137500
     51 H03          2.5270     4.1770    -3.3750 ha         1 BE5       0.126000
     52 H04          3.1760     3.2630    -5.6070 ha         1 BE5       0.136000
     53 H10         -3.3680     1.9460     6.1150 ha         1 BE5       0.136000
     54 H11         -3.9230     3.1460     3.9950 ha         1 BE5       0.126000
     55 H12         -3.8690     1.9320     1.8250 ha         1 BE5       0.137500
     56 H131        -4.1280    -0.3850     0.7660 h1         1 BE5       0.050450
     57 H132        -3.3310    -1.7760     1.5210 h1         1 BE5       0.050450
     58 H15         -2.0200    -2.1580    -0.3720 h1         1 BE5       0.050200
     59 H16          0.0700    -0.1120    -1.1260 h1         1 BE5       0.116700
     60 H17          0.2660    -0.4510     1.3260 h1         1 BE5       0.116700
     61 H18          2.7100    -1.8120     0.2170 h1         1 BE5       0.050200
     62 H21          1.7150    -1.9080     2.8190 hn         1 BE5       0.334500
     63 H231         4.3860     0.6690    -0.4520 h1         1 BE5       0.050450
     64 H232         4.0450    -0.7990    -1.3850 h1         1 BE5       0.050450
     65 H24          0.9910    -3.1680     0.6590 ho         1 BE5       0.497500
     66 H25         -0.1310    -2.9930    -1.2850 ho         1 BE5       0.497500
     67 H28         -0.9770    -1.2800    -2.9580 hn         1 BE5       0.334500
     68 H29         -3.0370     0.6670    -4.0680 h1         1 BE5       0.094200
     69 H32          0.1140     0.9290    -4.5070 ha         1 BE5       0.121500
     70 H33          1.3900     0.9980    -6.6580 ha         1 BE5       0.114500
     71 H34          0.4260    -0.0290    -8.7180 ha         1 BE5       0.112000
     72 H35         -4.4740    -1.2750    -4.3130 h1         1 BE5       0.048700
     73 H36         -3.6860    -3.3970    -4.7040 ho         1 BE5       0.445000
     74 H37         -1.8230    -1.1250    -8.6360 ha         1 BE5       0.113000
     75 H381        -3.6050    -2.2660    -6.7910 hc         1 BE5       0.059950
     76 H382        -4.2490    -0.6310    -6.6190 hc         1 BE5       0.059950
     77 H39          3.7320    -0.2120     4.3620 h1         1 BE5       0.094200
     78 H42          1.2600     1.6280     3.4530 ha         1 BE5       0.121500
     79 H43         -0.3940     2.8560     4.8690 ha         1 BE5       0.114500
     80 H44         -0.8480     2.0960     7.2040 ha         1 BE5       0.112000
     81 H45          3.7210    -2.4260     5.3080 h1         1 BE5       0.048700
     82 H46          1.8450    -3.7450     5.4440 ho         1 BE5       0.445000
     83 H47          0.3400     0.0940     8.1210 ha         1 BE5       0.113000
     84 H481         1.6960    -2.2010     7.2400 hc         1 BE5       0.059950
     85 H482         3.1350    -1.1790     7.2740 hc         1 BE5       0.059950
     86 C26         -2.4830    -0.5680    -1.7600 c          1 BE5       0.570100
     87 O27         -3.5450     0.0410    -1.6820 o          1 BE5      -0.584600
     88 C13         -3.2590    -0.6920     1.3610 c3         1 BE5       0.215900
@<TRIPOS>BOND
     1     1     2 ar  
     2     1     6 ar  
     3     1    22 1   
     4     2     3 ar  
     5     2    50 1   
     6     3     4 ar  
     7     3    51 1   
     8     4     5 ar  
     9     4    52 1   
    10     5     6 ar  
    11     5    47 1   
    12     6    48 1   
    13     7     8 ar  
    14     7    12 ar  
    15     7    88 1   
    16     8     9 ar  
    17     8    49 1   
    18     9    10 ar  
    19     9    46 1   
    20    10    11 ar  
    21    10    53 1   
    22    11    12 ar  
    23    11    54 1   
    24    12    55 1   
    25    13    14 1   
    26    13    88 1   
    27    14    15 1   
    28    14    58 1   
    29    14    86 1   
    30    15    16 1   
    31    15    24 1   
    32    15    59 1   
    33    16    17 1   
    34    16    23 1   
    35    16    60 1   
    36    17    18 1   
    37    17    21 1   
    38    17    61 1   
    39    18    19 2   
    40    18    20 1   
    41    20    36 1   
    42    20    62 1   
    43    21    22 1   
    44    22    63 1   
    45    22    64 1   
    46    23    65 1   
    47    24    66 1   
    48    25    26 1   
    49    25    67 1   
    50    25    86 1   
    51    26    27 1   
    52    26    32 1   
    53    26    68 1   
    54    27    28 ar  
    55    27    29 ar  
    56    28    34 ar  
    57    28    35 1   
    58    29    30 ar  
    59    29    69 1   
    60    30    31 ar  
    61    30    70 1   
    62    31    34 ar  
    63    31    71 1   
    64    32    33 1   
    65    32    35 1   
    66    32    72 1   
    67    33    73 1   
    68    34    74 1   
    69    35    75 1   
    70    35    76 1   
    71    36    37 1   
    72    36    42 1   
    73    36    77 1   
    74    37    38 ar  
    75    37    39 ar  
    76    38    44 ar  
    77    38    45 1   
    78    39    40 ar  
    79    39    78 1   
    80    40    41 ar  
    81    40    79 1   
    82    41    44 ar  
    83    41    80 1   
    84    42    43 1   
    85    42    45 1   
    86    42    81 1   
    87    43    82 1   
    88    44    83 1   
    89    45    84 1   
    90    45    85 1   
    91    56    88 1   
    92    57    88 1   
    93    86    87 2   
@<TRIPOS>SUBSTRUCTURE
     1 BE5         1 TEMP              0 ****  ****    0 ROOT
