@<TRIPOS>MOLECULE
BE6
   88    93     1     0     0
SMALL
abcg2


@<TRIPOS>ATOM
      1 C01         -3.8110    -0.3280    -1.7400 ca         1 BE6      -0.088300
      2 C02         -3.0290    -1.4300    -2.0610 ca         1 BE6      -0.103000
      3 C03         -3.3840    -2.2240    -3.1350 ca         1 BE6       0.151000
      4 C04         -4.4920    -1.9700    -3.9160 ca         1 BE6      -0.127500
      5 C05         -5.2780    -0.8700    -3.6010 ca         1 BE6      -0.122000
      6 C06         -4.9250    -0.0790    -2.5290 ca         1 BE6       0.152000
      7 C07          3.7430    -0.4550     1.7990 ca         1 BE6      -0.088300
      8 C08          4.8380    -0.2130     2.6170 ca         1 BE6       0.152000
      9 C09          5.1670    -1.0140     3.6890 ca         1 BE6      -0.122000
     10 C10          4.3750    -2.1190     3.9740 ca         1 BE6      -0.127500
     11 C11          3.2870    -2.3670     3.1640 ca         1 BE6       0.151000
     12 C12          2.9550    -1.5620     2.0900 ca         1 BE6      -0.103000
     13 O14          2.2790     0.0520     0.0120 os         1 BE6      -0.436000
     14 C15          1.7330     0.9510    -0.9040 c3         1 BE6       0.073800
     15 C16          0.1970     0.9460    -0.7340 c3         1 BE6       0.135800
     16 C17         -0.1980     0.9750     0.7470 c3         1 BE6       0.135800
     17 C18         -1.7310     1.0440     0.9240 c3         1 BE6       0.073800
     18 C19         -2.1980     0.6960     2.3510 c          1 BE6       0.574100
     19 O20         -3.1820    -0.0050     2.5190 o          1 BE6      -0.590100
     20 N21         -1.4790     1.2340     3.3490 ns         1 BE6      -0.490400
     21 O22         -2.3170     0.1490     0.0310 os         1 BE6      -0.436000
     22 C23         -3.4910     0.5890    -0.5930 c3         1 BE6       0.217400
     23 O24          0.4330     2.0310     1.4420 oh         1 BE6      -0.712000
     24 O25         -0.3900     2.0070    -1.4590 oh         1 BE6      -0.712000
     25 N28          1.5000     1.0880    -3.3340 ns         1 BE6      -0.490400
     26 C29          1.7980     0.8640    -4.7200 c5         1 BE6       0.163000
     27 C30          0.7090     0.1680    -5.5000 ca         1 BE6      -0.104800
     28 C31          0.6930     0.6490    -6.8060 ca         1 BE6      -0.080300
     29 C32         -0.1680    -0.8210    -5.0910 ca         1 BE6      -0.075500
     30 C33         -1.0730    -1.3330    -6.0170 ca         1 BE6      -0.110000
     31 C34         -1.0920    -0.8570    -7.3220 ca         1 BE6      -0.108000
     32 C35          2.0160     2.1560    -5.5300 c5         1 BE6       0.152800
     33 O36          1.0560     3.0850    -5.0850 oh         1 BE6      -0.658000
     34 C37         -0.2070     0.1400    -7.7260 ca         1 BE6      -0.096000
     35 C38          1.7460     1.7080    -6.9740 c5         1 BE6      -0.068100
     36 C39         -1.7600     1.0320     4.7420 c5         1 BE6       0.163000
     37 C40         -0.7110     0.2510     5.4970 ca         1 BE6      -0.104800
     38 C41         -0.6200     0.7310     6.7990 ca         1 BE6      -0.080300
     39 C42          0.0700    -0.8070     5.0680 ca         1 BE6      -0.075500
     40 C43          0.9550    -1.3910     5.9700 ca         1 BE6      -0.110000
     41 C44          1.0470    -0.9170     7.2740 ca         1 BE6      -0.108000
     42 C45         -1.8530     2.3380     5.5540 c5         1 BE6       0.152800
     43 O46         -0.8370     3.1890     5.0780 oh         1 BE6      -0.658000
     44 C47          0.2590     0.1500     7.6970 ca         1 BE6      -0.096000
     45 C48         -1.5780     1.8730     6.9920 c5         1 BE6      -0.068100
     46 F49          2.5090    -3.4310     3.4290 f          1 BE6      -0.178000
     47 F50         -2.6090    -3.2830    -3.4310 f          1 BE6      -0.178000
     48 F51         -5.6880     0.9890    -2.2290 f          1 BE6      -0.180000
     49 F52          5.6050     0.8590     2.3460 f          1 BE6      -0.180000
     50 H02         -2.1500    -1.6770    -1.4820 ha         1 BE6       0.149500
     51 H04         -4.7440    -2.6090    -4.7520 ha         1 BE6       0.135000
     52 H05         -6.1560    -0.6330    -4.1880 ha         1 BE6       0.136000
     53 H09          6.0290    -0.7820     4.3000 ha         1 BE6       0.136000
     54 H10          4.6070    -2.7660     4.8090 ha         1 BE6       0.135000
     55 H12          2.0910    -1.8030     1.4870 ha         1 BE6       0.149500
     56 H131         4.3000     0.4830    -0.0400 h1         1 BE6       0.053200
     57 H132         3.3350     1.4950     1.0360 h1         1 BE6       0.053200
     58 H15          2.0980     1.9740    -0.7190 h1         1 BE6       0.053700
     59 H16         -0.2020     0.0290    -1.1710 h1         1 BE6       0.116700
     60 H17          0.1660     0.0550     1.2090 h1         1 BE6       0.116700
     61 H18         -2.0590     2.0760     0.7190 h1         1 BE6       0.053700
     62 H21         -0.6570     1.7730     3.1080 hn         1 BE6       0.346500
     63 H231        -4.3300     0.6090     0.1130 h1         1 BE6       0.053200
     64 H232        -3.3660     1.6120    -0.9710 h1         1 BE6       0.053200
     65 H24          0.0890     2.8790     1.1370 ho         1 BE6       0.499000
     66 H25         -0.0200     2.8500    -1.1700 ho         1 BE6       0.499000
     67 H28          0.7000     1.6650    -3.1120 hn         1 BE6       0.346500
     68 H29          2.7120     0.2670    -4.7730 h1         1 BE6       0.096200
     69 H32         -0.1580    -1.1880    -4.0720 ha         1 BE6       0.121000
     70 H33         -1.7670    -2.1080    -5.7200 ha         1 BE6       0.116500
     71 H34         -1.8050    -1.2620    -8.0290 ha         1 BE6       0.111000
     72 H35          3.0340     2.5390    -5.4000 h1         1 BE6       0.046700
     73 H36          1.1760     3.9050    -5.5750 ho         1 BE6       0.444000
     74 H37         -0.2330     0.5120    -8.7430 ha         1 BE6       0.112000
     75 H381         1.4480     2.5350    -7.6230 hc         1 BE6       0.059200
     76 H382         2.6550     1.2770    -7.4060 hc         1 BE6       0.059200
     77 H39         -2.7180     0.5120     4.8180 h1         1 BE6       0.096200
     78 H42          0.0050    -1.1720     4.0490 ha         1 BE6       0.121000
     79 H43          1.5740    -2.2210     5.6570 ha         1 BE6       0.116500
     80 H44          1.7440    -1.3770     7.9620 ha         1 BE6       0.111000
     81 H45         -2.8410     2.8010     5.4530 h1         1 BE6       0.046700
     82 H46         -0.8780     4.0160     5.5670 ho         1 BE6       0.444000
     83 H47          0.3430     0.5200     8.7120 ha         1 BE6       0.112000
     84 H481        -1.1920     2.6750     7.6250 hc         1 BE6       0.059200
     85 H482        -2.5060     1.5220     7.4550 hc         1 BE6       0.059200
     86 C26          2.1980     0.5550    -2.3190 c          1 BE6       0.574100
     87 O27          3.1630    -0.1770    -2.4630 o          1 BE6      -0.590100
     88 C13          3.4510     0.4720     0.6540 c3         1 BE6       0.217400
@<TRIPOS>BOND
     1     1     2 ar  
     2     1     6 ar  
     3     1    22 1   
     4     2     3 ar  
     5     2    50 1   
     6     3     4 ar  
     7     3    47 1   
     8     4     5 ar  
     9     4    51 1   
    10     5     6 ar  
    11     5    52 1   
    12     6    48 1   
    13     7     8 ar  
    14     7    12 ar  
    15     7    88 1   
    16     8     9 ar  
    17     8    49 1   
    18     9    10 ar  
    19     9    53 1   
    20    10    11 ar  
    21    10    54 1   
    22    11    12 ar  
    23    11    46 1   
    24    12    55 1   
    25    13    14 1   
    26    13    88 1   
    27    14    15 1   
    28    14    58 1   
    29    14    86 1   
    30    15    16 1   
    31    15    24 1   
    32    15    59 1   
    33    16    17 1   
    34    16    23 1   
    35    16    60 1   
    36    17    18 1   
    37    17    21 1   
    38    17    61 1   
    39    18    19 2   
    40    18    20 1   
    41    20    36 1   
    42    20    62 1   
    43    21    22 1   
    44    22    63 1   
    45    22    64 1   
    46    23    65 1   
    47    24    66 1   
    48    25    26 1   
    49    25    67 1   
    50    25    86 1   
    51    26    27 1   
    52    26    32 1   
    53    26    68 1   
    54    27    28 ar  
    55    27    29 ar  
    56    28    34 ar  
    57    28    35 1   
    58    29    30 ar  
    59    29    69 1   
    60    30    31 ar  
    61    30    70 1   
    62    31    34 ar  
    63    31    71 1   
    64    32    33 1   
    65    32    35 1   
    66    32    72 1   
    67    33    73 1   
    68    34    74 1   
    69    35    75 1   
    70    35    76 1   
    71    36    37 1   
    72    36    42 1   
    73    36    77 1   
    74    37    38 ar  
    75    37    39 ar  
    76    38    44 ar  
    77    38    45 1   
    78    39    40 ar  
    79    39    78 1   
    80    40    41 ar  
    81    40    79 1   
    82    41    44 ar  
    83    41    80 1   
    84    42    43 1   
    85    42    45 1   
    86    42    81 1   
    87    43    82 1   
    88    44    83 1   
    89    45    84 1   
    90    45    85 1   
    91    56    88 1   
    92    57    88 1   
    93    86    87 2   
@<TRIPOS>SUBSTRUCTURE
     1 BE6         1 TEMP              0 ****  ****    0 ROOT
