@<TRIPOS>MOLECULE
BE6
   88    93     1     0     0
SMALL
No Charge or Current Charge


@<TRIPOS>ATOM
      1 C01         -3.7560    -0.1550    -1.8890 ca         1 BE6      -0.088300
      2 C02         -4.0870    -1.5160    -1.7140 ca         1 BE6      -0.103000
      3 C03         -4.2240    -2.3580    -2.8300 ca         1 BE6       0.151000
      4 C04         -4.0340    -1.8580    -4.1280 ca         1 BE6      -0.127500
      5 C05         -3.6990    -0.5040    -4.3100 ca         1 BE6      -0.122000
      6 C06         -3.5580     0.3410    -3.1960 ca         1 BE6       0.152000
      7 C07          3.7270    -0.3390     1.9140 ca         1 BE6      -0.088300
      8 C08          3.5540     0.1780     3.2160 ca         1 BE6       0.152000
      9 C09          3.6500    -0.6630     4.3380 ca         1 BE6      -0.122000
     10 C10          3.9140    -2.0340     4.1670 ca         1 BE6      -0.127500
     11 C11          4.0780    -2.5550     2.8740 ca         1 BE6       0.151000
     12 C12          3.9860    -1.7160     1.7510 ca         1 BE6      -0.103000
     13 O14          2.2490     0.5020     0.2350 os         1 BE6      -0.436000
     14 C15          1.8770     1.4390    -0.8130 c3         1 BE6       0.073800
     15 C16          0.3310     1.6710    -0.7270 c3         1 BE6       0.135800
     16 C17         -0.2560     1.6930     0.7340 c3         1 BE6       0.135800
     17 C18         -1.8130     1.5450     0.8220 c3         1 BE6       0.073800
     18 C19         -2.2760     1.0770     2.2450 c          1 BE6       0.574100
     19 O20         -3.1740     0.2600     2.4200 o          1 BE6      -0.590100
     20 N21         -1.5520     1.5910     3.3030 ns         1 BE6      -0.490400
     21 O22         -2.2350     0.6200    -0.2180 os         1 BE6      -0.436000
     22 C23         -3.5930     0.7490    -0.6750 c3         1 BE6       0.217400
     23 O24          0.1650     2.9020     1.4170 oh         1 BE6      -0.712000
     24 O25         -0.0250     2.8940    -1.4200 oh         1 BE6      -0.712000
     25 N28          1.6180     1.4770    -3.2940 ns         1 BE6      -0.490400
     26 C29          1.8240     0.9380    -4.6430 c5         1 BE6       0.163000
     27 C30          0.8020    -0.0870    -5.0710 ca         1 BE6      -0.104800
     28 C31          0.2890     0.1840    -6.3230 ca         1 BE6      -0.080300
     29 C32          0.3780    -1.2150    -4.3460 ca         1 BE6      -0.075500
     30 C33         -0.5840    -2.0700    -4.9180 ca         1 BE6      -0.110000
     31 C34         -1.1040    -1.7950    -6.2000 ca         1 BE6      -0.108000
     32 C35          1.4930     2.1370    -5.6520 c5         1 BE6       0.152800
     33 O36          0.5620     3.1010    -5.1240 oh         1 BE6      -0.658000
     34 C37         -0.6680    -0.6600    -6.9110 ca         1 BE6      -0.096000
     35 C38          0.8840     1.4290    -6.9270 c5         1 BE6      -0.068100
     36 C39         -1.7860     1.0750     4.6560 c5         1 BE6       0.163000
     37 C40         -0.8200     0.0010     5.0930 ca         1 BE6      -0.104800
     38 C41         -0.2930     0.2540     6.3430 ca         1 BE6      -0.080300
     39 C42         -0.4580    -1.1540     4.3780 ca         1 BE6      -0.075500
     40 C43          0.4570    -2.0560     4.9580 ca         1 BE6      -0.110000
     41 C44          0.9910    -1.7970     6.2380 ca         1 BE6      -0.108000
     42 C45         -1.3900     2.2640     5.6540 c5         1 BE6       0.152800
     43 O46         -0.4090     3.1720     5.1190 oh         1 BE6      -0.658000
     44 C47          0.6170    -0.6340     6.9390 ca         1 BE6      -0.096000
     45 C48         -0.8200     1.5350     6.9360 c5         1 BE6      -0.068100
     46 F49          4.3250    -3.8730     2.7090 f          1 BE6      -0.178000
     47 F50         -4.5400    -3.6600    -2.6530 f          1 BE6      -0.178000
     48 F51         -3.2310     1.6380    -3.3950 f          1 BE6      -0.180000
     49 F52          3.2960     1.4920     3.4030 f          1 BE6      -0.180000
     50 H02         -4.2320    -1.9210    -0.7160 ha         1 BE6       0.149500
     51 H04         -4.1420    -2.5180    -4.9850 ha         1 BE6       0.135000
     52 H05         -3.5420    -0.1090    -5.3110 ha         1 BE6       0.136000
     53 H09          3.5140    -0.2510     5.3350 ha         1 BE6       0.136000
     54 H10          3.9870    -2.6910     5.0300 ha         1 BE6       0.135000
     55 H12          4.1110    -2.1370     0.7560 ha         1 BE6       0.149500
     56 H131         4.3070     0.2190    -0.0850 h1         1 BE6       0.053200
     57 H132         3.8910     1.5890     0.9590 h1         1 BE6       0.053200
     58 H15          2.3720     2.4040    -0.6440 h1         1 BE6       0.053700
     59 H16         -0.1180     0.8100    -1.2420 h1         1 BE6       0.116700
     60 H17          0.1460     0.8140     1.2570 h1         1 BE6       0.116700
     61 H18         -2.2560     2.5340     0.6450 h1         1 BE6       0.053700
     62 H21         -0.8030     2.2470     3.0900 hn         1 BE6       0.346500
     63 H231        -4.3050     0.4500     0.1040 h1         1 BE6       0.053200
     64 H232        -3.8160     1.7870    -0.9520 h1         1 BE6       0.053200
     65 H24         -0.3290     3.6560     1.0220 ho         1 BE6       0.499000
     66 H25          0.5080     3.6250    -1.0320 ho         1 BE6       0.499000
     67 H28          0.9060     2.1740    -3.0870 hn         1 BE6       0.346500
     68 H29          2.8420     0.5610    -4.8170 h1         1 BE6       0.096200
     69 H32          0.7850    -1.4270    -3.3610 ha         1 BE6       0.121000
     70 H33         -0.9250    -2.9460    -4.3700 ha         1 BE6       0.116500
     71 H34         -1.8450    -2.4590    -6.6400 ha         1 BE6       0.111000
     72 H35          2.4220     2.6590    -5.9190 h1         1 BE6       0.046700
     73 H36          0.4110     3.7670    -5.8290 ho         1 BE6       0.444000
     74 H37         -1.0640    -0.4420    -7.9000 ha         1 BE6       0.112000
     75 H381         0.1450     2.0500    -7.4470 hc         1 BE6       0.059200
     76 H382         1.6670     1.1790    -7.6520 hc         1 BE6       0.059200
     77 H39         -2.8220     0.7550     4.8340 h1         1 BE6       0.096200
     78 H42         -0.8760    -1.3530     3.3950 ha         1 BE6       0.121000
     79 H43          0.7500    -2.9530     4.4180 ha         1 BE6       0.116500
     80 H44          1.6950    -2.4960     6.6830 ha         1 BE6       0.111000
     81 H45         -2.2900     2.8380     5.9170 h1         1 BE6       0.046700
     82 H46         -0.2230     3.8350     5.8180 ho         1 BE6       0.444000
     83 H47          1.0240    -0.4300     7.9260 ha         1 BE6       0.112000
     84 H481        -0.0490     2.1200     7.4510 hc         1 BE6       0.059200
     85 H482        -1.6160     1.3340     7.6630 hc         1 BE6       0.059200
     86 C26          2.3140     0.9340    -2.2320 c          1 BE6       0.574100
     87 O27          3.1670     0.0690    -2.3990 o          1 BE6      -0.590100
     88 C13          3.6120     0.5620     0.6910 c3         1 BE6       0.217400
@<TRIPOS>BOND
     1     1     2 ar  
     2     1     6 ar  
     3     1    22 1   
     4     2     3 ar  
     5     2    50 1   
     6     3     4 ar  
     7     3    47 1   
     8     4     5 ar  
     9     4    51 1   
    10     5     6 ar  
    11     5    52 1   
    12     6    48 1   
    13     7     8 ar  
    14     7    12 ar  
    15     7    88 1   
    16     8     9 ar  
    17     8    49 1   
    18     9    10 ar  
    19     9    53 1   
    20    10    11 ar  
    21    10    54 1   
    22    11    12 ar  
    23    11    46 1   
    24    12    55 1   
    25    13    14 1   
    26    13    88 1   
    27    14    15 1   
    28    14    58 1   
    29    14    86 1   
    30    15    16 1   
    31    15    24 1   
    32    15    59 1   
    33    16    17 1   
    34    16    23 1   
    35    16    60 1   
    36    17    18 1   
    37    17    21 1   
    38    17    61 1   
    39    18    19 2   
    40    18    20 1   
    41    20    36 1   
    42    20    62 1   
    43    21    22 1   
    44    22    63 1   
    45    22    64 1   
    46    23    65 1   
    47    24    66 1   
    48    25    26 1   
    49    25    67 1   
    50    25    86 1   
    51    26    27 1   
    52    26    32 1   
    53    26    68 1   
    54    27    28 ar  
    55    27    29 ar  
    56    28    34 ar  
    57    28    35 1   
    58    29    30 ar  
    59    29    69 1   
    60    30    31 ar  
    61    30    70 1   
    62    31    34 ar  
    63    31    71 1   
    64    32    33 1   
    65    32    35 1   
    66    32    72 1   
    67    33    73 1   
    68    34    74 1   
    69    35    75 1   
    70    35    76 1   
    71    36    37 1   
    72    36    42 1   
    73    36    77 1   
    74    37    38 ar  
    75    37    39 ar  
    76    38    44 ar  
    77    38    45 1   
    78    39    40 ar  
    79    39    78 1   
    80    40    41 ar  
    81    40    79 1   
    82    41    44 ar  
    83    41    80 1   
    84    42    43 1   
    85    42    45 1   
    86    42    81 1   
    87    43    82 1   
    88    44    83 1   
    89    45    84 1   
    90    45    85 1   
    91    56    88 1   
    92    57    88 1   
    93    86    87 2   
@<TRIPOS>SUBSTRUCTURE
     1 BE6         1 TEMP              0 ****  ****    0 ROOT
