@<TRIPOS>MOLECULE
BE9
   34    35     1     0     0
SMALL
bcc


@<TRIPOS>ATOM
      1 C4          -1.2130     1.1340    -0.3020 ca         1 BE9       0.118100
      2 C5          -1.7510     2.0890    -1.1500 ca         1 BE9      -0.143500
      3 C6          -2.4870     3.1320    -0.6070 ca         1 BE9      -0.104500
      4 C8           0.4750    -0.5190    -0.2390 c2         1 BE9       0.964500
      5 C15          2.5400    -0.3200     1.0280 c6         1 BE9       0.182800
      6 C2          -2.1240     2.2560     1.5970 ca         1 BE9      -0.104500
      7 C3          -1.3960     1.1980     1.0700 ca         1 BE9      -0.143500
      8 O7          -0.5210     0.0990    -0.9020 os         1 BE9      -0.398700
      9 N14          1.5050     0.2210     0.1540 nh         1 BE9      -0.752600
     10 C19          1.8050     1.5660    -0.3230 c6         1 BE9       0.182800
     11 C18          3.1970     1.5770    -0.9390 c6         1 BE9       0.109900
     12 O17          4.1740     1.0920    -0.0510 os         1 BE9      -0.394600
     13 C16          3.8910    -0.2320     0.3430 c6         1 BE9       0.109900
     14 N9           0.4410    -1.7980    -0.0380 ne         1 BE9      -0.865300
     15 S10         -0.9450    -2.6100    -0.3220 sy         1 BE9       1.445300
     16 N13         -0.4620    -4.0640     0.3040 n8         1 BE9      -0.864700
     17 O12         -2.0540    -2.0220     0.4220 o          1 BE9      -0.643300
     18 O11         -1.1680    -2.8470    -1.7420 o          1 BE9      -0.643300
     19 C1          -2.6710     3.2240     0.7660 ca         1 BE9      -0.136000
     20 H5          -1.5960     2.0170    -2.2190 ha         1 BE9       0.151000
     21 H6          -2.9120     3.8800    -1.2640 ha         1 BE9       0.138500
     22 H15A         2.3080    -1.3510     1.2820 h1         1 BE9       0.074950
     23 H2          -2.2700     2.3130     2.6680 ha         1 BE9       0.138500
     24 H3          -1.0000     0.4370     1.7290 ha         1 BE9       0.151000
     25 H19          1.0970     1.8930    -1.0790 h1         1 BE9       0.074950
     26 H19A         1.7480     2.2610     0.5180 h1         1 BE9       0.074950
     27 H18          3.1810     0.9830    -1.8640 h1         1 BE9       0.062450
     28 H18A         3.4640     2.6020    -1.1980 h1         1 BE9       0.062450
     29 H16          4.6720    -0.5460     1.0360 h1         1 BE9       0.062450
     30 H16A         3.9090    -0.9070    -0.5230 h1         1 BE9       0.062450
     31 HN13        -0.2950    -4.0120     1.3040 hn         1 BE9       0.407300
     32 HN1A        -1.1590    -4.7770     0.1140 hn         1 BE9       0.407300
     33 H1          -3.2390     4.0430     1.1870 ha         1 BE9       0.138000
     34 H15          2.5450     0.2690     1.9500 h1         1 BE9       0.074950
@<TRIPOS>BOND
     1     1     2 ar  
     2     1     7 ar  
     3     1     8 1   
     4     2     3 ar  
     5     2    20 1   
     6     3    19 ar  
     7     3    21 1   
     8     4     8 1   
     9     4     9 1   
    10     4    14 2   
    11     5     9 1   
    12     5    13 1   
    13     5    22 1   
    14     5    34 1   
    15     6     7 ar  
    16     6    19 ar  
    17     6    23 1   
    18     7    24 1   
    19     9    10 1   
    20    10    11 1   
    21    10    25 1   
    22    10    26 1   
    23    11    12 1   
    24    11    27 1   
    25    11    28 1   
    26    12    13 1   
    27    13    29 1   
    28    13    30 1   
    29    14    15 1   
    30    15    16 1   
    31    15    17 2   
    32    15    18 2   
    33    16    31 1   
    34    16    32 1   
    35    19    33 1   
@<TRIPOS>SUBSTRUCTURE
     1 BE9         1 TEMP              0 ****  ****    0 ROOT
