@<TRIPOS>MOLECULE
BE9
   34    35     1     0     0
SMALL
No Charge or Current Charge


@<TRIPOS>ATOM
      1 C4          -1.2400     1.1430    -0.3840 ca         1 BE9       0.118100
      2 C5          -2.0650     2.0030    -1.1280 ca         1 BE9      -0.125500
      3 C6          -2.8360     2.9840    -0.4810 ca         1 BE9      -0.086500
      4 C8           0.3940    -0.6130    -0.4400 c2         1 BE9       0.964500
      5 C15          2.4700    -0.4710     0.9480 c6         1 BE9       0.182800
      6 C2          -1.9620     2.2510     1.6690 ca         1 BE9      -0.086500
      7 C3          -1.1900     1.2680     1.0230 ca         1 BE9      -0.125500
      8 O7          -0.5010     0.2040    -1.0720 os         1 BE9      -0.398700
      9 N14          1.6600    -0.0760    -0.2570 nh         1 BE9      -0.752600
     10 C19          1.9940     1.2840    -0.8040 c6         1 BE9       0.182800
     11 C18          3.5190     1.5840    -0.8260 c6         1 BE9       0.133100
     12 O17          4.1130     1.3100     0.4600 os         1 BE9      -0.441000
     13 C16          3.9700    -0.0750     0.8420 c6         1 BE9       0.133100
     14 N9           0.1560    -1.7950    -0.0160 ne         1 BE9      -0.865300
     15 S10         -1.2650    -2.4630    -0.3310 sy         1 BE9       1.303700
     16 N13         -0.7270    -3.9420    -0.0740 n8         1 BE9      -0.975100
     17 O12         -2.2010    -2.1900     0.7510 o          1 BE9      -0.572500
     18 O11         -1.6180    -2.3810    -1.7440 o          1 BE9      -0.572500
     19 C1          -2.7830     3.1080     0.9170 ca         1 BE9      -0.118000
     20 H5          -2.1050     1.9070    -2.2100 ha         1 BE9       0.133000
     21 H6          -3.4730     3.6480    -1.0640 ha         1 BE9       0.120500
     22 H15A         2.4360    -1.5590     1.0990 h1         1 BE9       0.074950
     23 H2          -1.9240     2.3470     2.7520 ha         1 BE9       0.120500
     24 H3          -0.5660     0.6150     1.6270 ha         1 BE9       0.133000
     25 H19          1.6270     1.3790    -1.8370 h1         1 BE9       0.074950
     26 H19A         1.4870     2.0630    -0.2150 h1         1 BE9       0.074950
     27 H18          4.0090     0.9640    -1.5910 h1         1 BE9       0.062450
     28 H18A         3.6880     2.6380    -1.0850 h1         1 BE9       0.062450
     29 H16          4.4670    -0.2370     1.8080 h1         1 BE9       0.062450
     30 H16A         4.4680    -0.7090     0.0940 h1         1 BE9       0.062450
     31 HN13         0.2080    -3.6450     0.1920 hn         1 BE9       0.462500
     32 HN1A        -1.1840    -4.1170     0.8140 hn         1 BE9       0.462500
     33 H1          -3.3800     3.8680     1.4190 ha         1 BE9       0.120000
     34 H15          2.0420    -0.0140     1.8530 h1         1 BE9       0.074950
@<TRIPOS>BOND
     1     1     2 ar  
     2     1     7 ar  
     3     1     8 1   
     4     2     3 ar  
     5     2    20 1   
     6     3    19 ar  
     7     3    21 1   
     8     4     8 1   
     9     4     9 1   
    10     4    14 2   
    11     5     9 1   
    12     5    13 1   
    13     5    22 1   
    14     5    34 1   
    15     6     7 ar  
    16     6    19 ar  
    17     6    23 1   
    18     7    24 1   
    19     9    10 1   
    20    10    11 1   
    21    10    25 1   
    22    10    26 1   
    23    11    12 1   
    24    11    27 1   
    25    11    28 1   
    26    12    13 1   
    27    13    29 1   
    28    13    30 1   
    29    14    15 1   
    30    15    16 1   
    31    15    17 2   
    32    15    18 2   
    33    16    31 1   
    34    16    32 1   
    35    19    33 1   
@<TRIPOS>SUBSTRUCTURE
     1 BE9         1 TEMP              0 ****  ****    0 ROOT
