@<TRIPOS>MOLECULE
BEA
   21    23     1     0     0
SMALL
abcg2


@<TRIPOS>ATOM
      1 C1          59.2080     0.5880    43.0070 ca         1 BEA      -0.023300
      2 C2          57.8120     1.1060    43.1490 c3         1 BEA      -0.068800
      3 C3          59.9400     0.1490    44.1040 ca         1 BEA      -0.064000
      4 C4          61.2380    -0.3420    43.9880 ca         1 BEA      -0.062000
      5 C5          61.8700    -0.4170    42.7590 ca         1 BEA      -0.045000
      6 C6          61.1580     0.0160    41.6550 ca         1 BEA      -0.192000
      7 C7          60.2450     0.6830    39.5190 cc         1 BEA      -0.156300
      8 C8          59.8590     0.5090    41.7810 ca         1 BEA      -0.034200
      9 C9          58.2510     1.4220    39.9510 cc         1 BEA       0.460400
     10 N1          59.3740     0.8820    40.5200 na         1 BEA      -0.089000
     11 N2          58.4150     1.5470    38.6760 n2         1 BEA      -0.423800
     12 N3          59.6500     1.0890    38.4170 na         1 BEA       0.038800
     13 S           61.7440     0.0210    39.9920 ss         1 BEA       0.435000
     14 H21         57.7280     2.1420    42.8140 hc         1 BEA       0.066367
     15 H22         57.1000     0.5080    42.5750 hc         1 BEA       0.066367
     16 H23         57.5010     1.0730    44.1910 hc         1 BEA       0.066367
     17 H3          59.4770     0.1900    45.0810 ha         1 BEA       0.151000
     18 H4          61.7620    -0.6720    44.8740 ha         1 BEA       0.153000
     19 H5          62.8770    -0.7990    42.6660 ha         1 BEA       0.155000
     20 H9          57.3610     1.7040    40.4870 h5         1 BEA       0.120100
     21 HN3         60.0130     1.0790    37.4710 hn         1 BEA       0.444000
@<TRIPOS>BOND
     1     1     2 1   
     2     1     3 ar  
     3     1     8 ar  
     4     2    14 1   
     5     2    15 1   
     6     2    16 1   
     7     3     4 ar  
     8     3    17 1   
     9     4     5 ar  
    10     4    18 1   
    11     5     6 ar  
    12     5    19 1   
    13     6     8 ar  
    14     6    13 1   
    15     7    10 2   
    16     7    12 1   
    17     7    13 1   
    18     8    10 1   
    19     9    10 1   
    20     9    11 2   
    21     9    20 1   
    22    11    12 1   
    23    12    21 1   
@<TRIPOS>SUBSTRUCTURE
     1 BEA         1 TEMP              0 ****  ****    0 ROOT
