@<TRIPOS>MOLECULE
BEA
   21    23     1     0     0
SMALL
No Charge or Current Charge


@<TRIPOS>ATOM
      1 C1          59.1490     0.5190    42.9740 ca         1 BEA      -0.023300
      2 C2          57.6890     0.9190    43.1570 c3         1 BEA      -0.068800
      3 C3          59.9590     0.3030    44.1100 ca         1 BEA      -0.064000
      4 C4          61.3030    -0.1060    43.9730 ca         1 BEA      -0.062000
      5 C5          61.8560    -0.3140    42.6960 ca         1 BEA      -0.045000
      6 C6          61.0500    -0.0970    41.5660 ca         1 BEA      -0.192000
      7 C7          59.9370     0.1160    39.4130 cc         1 BEA      -0.156300
      8 C8          59.7290     0.3270    41.7000 ca         1 BEA      -0.034200
      9 C9          58.4520     1.6200    40.0580 cc         1 BEA       0.460400
     10 N1          59.1270     0.4790    40.4630 na         1 BEA      -0.089000
     11 N2          58.7360     1.9590    38.8310 n2         1 BEA      -0.423800
     12 N3          59.7040     1.0520    38.4210 na         1 BEA       0.038800
     13 S           61.5950    -0.3220    39.8670 ss         1 BEA       0.435000
     14 H21         57.5660     2.0060    43.0830 hc         1 BEA       0.066367
     15 H22         57.0430     0.4470    42.4080 hc         1 BEA       0.066367
     16 H23         57.3120     0.6140    44.1400 hc         1 BEA       0.066367
     17 H3          59.5470     0.4460    45.1060 ha         1 BEA       0.151000
     18 H4          61.9120    -0.2690    44.8590 ha         1 BEA       0.153000
     19 H5          62.8900    -0.6390    42.5900 ha         1 BEA       0.155000
     20 H9          57.8100     2.1950    40.7110 h5         1 BEA       0.120100
     21 HN3         60.2170     1.2240    37.5530 hn         1 BEA       0.444000
@<TRIPOS>BOND
     1     1     2 1   
     2     1     3 ar  
     3     1     8 ar  
     4     2    14 1   
     5     2    15 1   
     6     2    16 1   
     7     3     4 ar  
     8     3    17 1   
     9     4     5 ar  
    10     4    18 1   
    11     5     6 ar  
    12     5    19 1   
    13     6     8 ar  
    14     6    13 1   
    15     7    10 2   
    16     7    12 1   
    17     7    13 1   
    18     8    10 1   
    19     9    10 1   
    20     9    11 2   
    21     9    20 1   
    22    11    12 1   
    23    12    21 1   
@<TRIPOS>SUBSTRUCTURE
     1 BEA         1 TEMP              0 ****  ****    0 ROOT
