@<TRIPOS>MOLECULE
BEB
   88    93     1     0     0
SMALL
bcc


@<TRIPOS>ATOM
      1 C23         -0.5240     4.0400     1.6730 ca         1 BEB      -0.094300
      2 C24         -0.3920     5.0170     2.6520 ca         1 BEB      -0.106750
      3 C25         -1.5150     5.5620     3.2640 ca         1 BEB      -0.132750
      4 C26         -2.7820     5.1260     2.9040 ca         1 BEB      -0.121000
      5 C27         -2.9220     4.1470     1.9250 ca         1 BEB      -0.132750
      6 C28         -1.8010     3.6090     1.3140 ca         1 BEB      -0.106750
      7 C33          0.3130    -4.2970     2.2810 ca         1 BEB      -0.094300
      8 C34         -0.0040    -5.2140     3.2760 ca         1 BEB      -0.106750
      9 C35          0.9900    -5.7500     4.0880 ca         1 BEB      -0.132750
     10 C36          2.3110    -5.3630     3.9140 ca         1 BEB      -0.121000
     11 C37          2.6350    -4.4430     2.9220 ca         1 BEB      -0.132750
     12 C38          1.6430    -3.9150     2.1110 ca         1 BEB      -0.106750
     13 O31         -0.6660    -2.3170     1.4390 os         1 BEB      -0.374600
     14 C9          -1.2440    -1.6540     0.3580 c3         1 BEB       0.047600
     15 C7          -0.7210    -0.2080     0.3650 c3         1 BEB       0.120600
     16 C5           0.8130    -0.1600     0.4140 c3         1 BEB       0.120600
     17 C4           1.3220     1.2810     0.2730 c3         1 BEB       0.047600
     18 C2           2.8390     1.2890     0.4760 c          1 BEB       0.636600
     19 O3           3.3210     1.1140     1.5830 o          1 BEB      -0.576600
     20 N1           3.5540     1.4820    -0.6420 ns         1 BEB      -0.554400
     21 O21          0.6880     2.0540     1.2460 os         1 BEB      -0.374600
     22 C22          0.6780     3.4450     0.9970 c3         1 BEB       0.186200
     23 O6           1.4370    -0.9920    -0.5350 oh         1 BEB      -0.589300
     24 O8          -1.2710     0.5130    -0.7110 oh         1 BEB      -0.589300
     25 N12         -3.4530    -1.7450    -0.6480 ns         1 BEB      -0.554400
     26 C51         -4.8760    -1.5650    -0.7400 c5         1 BEB       0.160500
     27 C52         -5.3400    -0.1600    -1.0490 ca         1 BEB      -0.107800
     28 C57         -6.4850    -0.2140    -1.8360 ca         1 BEB      -0.079800
     29 C53         -4.8050     1.0500    -0.6450 ca         1 BEB      -0.095000
     30 C54         -5.4410     2.2240    -1.0390 ca         1 BEB      -0.132000
     31 C55         -6.5910     2.1760    -1.8200 ca         1 BEB      -0.125500
     32 C59         -5.5190    -2.3880    -1.8700 c5         1 BEB       0.131100
     33 O60         -4.6500    -2.3120    -2.9770 oh         1 BEB      -0.600300
     34 C56         -7.1210     0.9540    -2.2250 ca         1 BEB      -0.115000
     35 C58         -6.8380    -1.6450    -2.1320 c5         1 BEB      -0.066600
     36 C41          4.9860     1.3980    -0.7100 c5         1 BEB       0.160500
     37 C42          5.5090     0.2760    -1.5730 ca         1 BEB      -0.107800
     38 C47          6.6940     0.6720    -2.1830 ca         1 BEB      -0.079800
     39 C43          4.9830    -0.9870    -1.7740 ca         1 BEB      -0.095000
     40 C44          5.6680    -1.8670    -2.6070 ca         1 BEB      -0.132000
     41 C45          6.8550    -1.4780    -3.2190 ca         1 BEB      -0.125500
     42 C49          5.6720     2.6370    -1.3170 c5         1 BEB       0.131100
     43 O50          4.8770     3.0580    -2.4000 oh         1 BEB      -0.600300
     44 C46          7.3770    -0.2030    -3.0100 ca         1 BEB      -0.115000
     45 C48          7.0270     2.0830    -1.7850 c5         1 BEB      -0.066600
     46 H24          0.5960     5.3560     2.9430 ha         1 BEB       0.136500
     47 H25         -1.4000     6.3220     4.0260 ha         1 BEB       0.130500
     48 H26         -3.6580     5.5460     3.3820 ha         1 BEB       0.129000
     49 H27         -3.9110     3.8070     1.6420 ha         1 BEB       0.130500
     50 H28         -1.9140     2.8520     0.5460 ha         1 BEB       0.136500
     51 H34         -1.0360    -5.5130     3.4230 ha         1 BEB       0.136500
     52 H35          0.7300    -6.4610     4.8610 ha         1 BEB       0.130500
     53 H36          3.0850    -5.7730     4.5500 ha         1 BEB       0.129000
     54 H37          3.6640    -4.1380     2.7820 ha         1 BEB       0.130500
     55 H38          1.9020    -3.2030     1.3360 ha         1 BEB       0.136500
     56 H321        -1.7400    -4.0790     1.6930 h1         1 BEB       0.034950
     57 H322        -0.5870    -4.0730     0.3570 h1         1 BEB       0.034950
     58 H9          -0.9600    -2.1350    -0.5910 h1         1 BEB       0.037200
     59 H7          -1.0900     0.2810     1.2680 h1         1 BEB       0.131200
     60 H5           1.1230    -0.5390     1.3900 h1         1 BEB       0.131200
     61 H4           1.0740     1.6520    -0.7340 h1         1 BEB       0.037200
     62 HN1          3.0620     1.6600    -1.5040 hn         1 BEB       0.324000
     63 H221         1.5980     3.9180     1.3590 h1         1 BEB       0.034950
     64 H222         0.6200     3.6340    -0.0820 h1         1 BEB       0.034950
     65 HO6          1.3060    -0.6440    -1.4240 ho         1 BEB       0.393000
     66 HO8         -1.0550     0.0850    -1.5460 ho         1 BEB       0.393000
     67 H12         -2.9480    -1.8610    -1.5130 hn         1 BEB       0.324000
     68 H51         -5.3210    -1.8850     0.2070 h1         1 BEB       0.096200
     69 H53         -3.9040     1.0910    -0.0460 ha         1 BEB       0.148000
     70 H54         -5.0340     3.1840    -0.7450 ha         1 BEB       0.131000
     71 H55         -7.0730     3.0970    -2.1200 ha         1 BEB       0.129500
     72 H59         -5.6830    -3.4260    -1.5630 h1         1 BEB       0.048200
     73 H60         -4.9720    -2.9070    -3.6620 ho         1 BEB       0.407500
     74 H56         -8.0090     0.9230    -2.8440 ha         1 BEB       0.130500
     75 H581        -7.2140    -1.8100    -3.1440 hc         1 BEB       0.059950
     76 H582        -7.6090    -2.0020    -1.4430 hc         1 BEB       0.059950
     77 H41          5.3550     1.2700     0.3110 h1         1 BEB       0.096200
     78 H43          4.0510    -1.2820    -1.3060 ha         1 BEB       0.148000
     79 H44          5.2740    -2.8590    -2.7850 ha         1 BEB       0.131000
     80 H45          7.3730    -2.1690    -3.8710 ha         1 BEB       0.129500
     81 H49          5.7870     3.4330    -0.5730 h1         1 BEB       0.048200
     82 H50          5.2660     3.8540    -2.7740 ho         1 BEB       0.407500
     83 H46          8.2980     0.0960    -3.4960 ha         1 BEB       0.130500
     84 H481         7.4710     2.6790    -2.5850 hc         1 BEB       0.059950
     85 H482         7.7360     2.0870    -0.9520 hc         1 BEB       0.059950
     86 C10         -2.7690    -1.6170     0.4980 c          1 BEB       0.636600
     87 O11         -3.2910    -1.4540     1.5890 o          1 BEB      -0.576600
     88 C32         -0.7480    -3.7250     1.3860 c3         1 BEB       0.186200
@<TRIPOS>BOND
     1     1     2 ar  
     2     1     6 ar  
     3     1    22 1   
     4     2     3 ar  
     5     2    46 1   
     6     3     4 ar  
     7     3    47 1   
     8     4     5 ar  
     9     4    48 1   
    10     5     6 ar  
    11     5    49 1   
    12     6    50 1   
    13     7     8 ar  
    14     7    12 ar  
    15     7    88 1   
    16     8     9 ar  
    17     8    51 1   
    18     9    10 ar  
    19     9    52 1   
    20    10    11 ar  
    21    10    53 1   
    22    11    12 ar  
    23    11    54 1   
    24    12    55 1   
    25    13    14 1   
    26    13    88 1   
    27    14    15 1   
    28    14    58 1   
    29    14    86 1   
    30    15    16 1   
    31    15    24 1   
    32    15    59 1   
    33    16    17 1   
    34    16    23 1   
    35    16    60 1   
    36    17    18 1   
    37    17    21 1   
    38    17    61 1   
    39    18    19 2   
    40    18    20 1   
    41    20    36 1   
    42    20    62 1   
    43    21    22 1   
    44    22    63 1   
    45    22    64 1   
    46    23    65 1   
    47    24    66 1   
    48    25    26 1   
    49    25    67 1   
    50    25    86 1   
    51    26    27 1   
    52    26    32 1   
    53    26    68 1   
    54    27    28 ar  
    55    27    29 ar  
    56    28    34 ar  
    57    28    35 1   
    58    29    30 ar  
    59    29    69 1   
    60    30    31 ar  
    61    30    70 1   
    62    31    34 ar  
    63    31    71 1   
    64    32    33 1   
    65    32    35 1   
    66    32    72 1   
    67    33    73 1   
    68    34    74 1   
    69    35    75 1   
    70    35    76 1   
    71    36    37 1   
    72    36    42 1   
    73    36    77 1   
    74    37    38 ar  
    75    37    39 ar  
    76    38    44 ar  
    77    38    45 1   
    78    39    40 ar  
    79    39    78 1   
    80    40    41 ar  
    81    40    79 1   
    82    41    44 ar  
    83    41    80 1   
    84    42    43 1   
    85    42    45 1   
    86    42    81 1   
    87    43    82 1   
    88    44    83 1   
    89    45    84 1   
    90    45    85 1   
    91    56    88 1   
    92    57    88 1   
    93    86    87 2   
@<TRIPOS>SUBSTRUCTURE
     1 BEB         1 TEMP              0 ****  ****    0 ROOT
