@<TRIPOS>MOLECULE
BEB
   88    93     1     0     0
SMALL
No Charge or Current Charge


@<TRIPOS>ATOM
      1 C23          0.5140     3.7470     2.8940 ca         1 BEB      -0.094300
      2 C24          1.2240     3.6390     4.1060 ca         1 BEB      -0.088750
      3 C25          0.6150     4.0070     5.3190 ca         1 BEB      -0.114750
      4 C26         -0.7060     4.4850     5.3270 ca         1 BEB      -0.103000
      5 C27         -1.4200     4.5930     4.1220 ca         1 BEB      -0.114750
      6 C28         -0.8120     4.2240     2.9080 ca         1 BEB      -0.088750
      7 C33         -0.4630    -3.8320     2.8000 ca         1 BEB      -0.094300
      8 C34         -1.1580    -3.7540     4.0240 ca         1 BEB      -0.088750
      9 C35         -0.5350    -4.1550     5.2190 ca         1 BEB      -0.114750
     10 C36          0.7850    -4.6340     5.1980 ca         1 BEB      -0.103000
     11 C37          1.4840    -4.7120     3.9810 ca         1 BEB      -0.114750
     12 C38          0.8620    -4.3120     2.7860 ca         1 BEB      -0.088750
     13 O31         -0.8410    -2.0080     1.2870 os         1 BEB      -0.421000
     14 C9          -1.3750    -1.4420     0.0620 c3         1 BEB       0.070800
     15 C7          -0.7770    -0.0130    -0.0860 c3         1 BEB       0.143800
     16 C5           0.7910     0.0050    -0.0950 c3         1 BEB       0.143800
     17 C4           1.3920     1.4300     0.0830 c3         1 BEB       0.070800
     18 C2           2.9470     1.3720     0.0920 c          1 BEB       0.569600
     19 O3           3.5920     0.9570     1.0490 o          1 BEB      -0.576600
     20 N1           3.5490     1.8980    -1.0350 ns         1 BEB      -0.487400
     21 O21          0.8730     1.9630     1.3290 os         1 BEB      -0.421000
     22 C22          1.1710     3.3470     1.5810 c3         1 BEB       0.209400
     23 O6           1.2920    -0.6100    -1.3090 oh         1 BEB      -0.711500
     24 O8          -1.2920     0.6340    -1.2760 oh         1 BEB      -0.711500
     25 N12         -3.5460    -1.8800    -1.0410 ns         1 BEB      -0.487400
     26 C51         -5.0120    -1.9010    -1.1050 c5         1 BEB       0.160500
     27 C52         -5.6350    -0.7380    -1.8370 ca         1 BEB      -0.107800
     28 C57         -6.5640    -1.1510    -2.7710 ca         1 BEB      -0.079800
     29 C53         -5.3670     0.6270    -1.6400 ca         1 BEB      -0.077000
     30 C54         -6.0620     1.5760    -2.4150 ca         1 BEB      -0.114000
     31 C55         -7.0110     1.1540    -3.3690 ca         1 BEB      -0.107500
     32 C59         -5.3800    -3.1120    -2.0880 c5         1 BEB       0.154300
     33 O60         -4.3550    -3.4030    -3.0580 oh         1 BEB      -0.662500
     34 C56         -7.2690    -0.2190    -3.5500 ca         1 BEB      -0.097000
     35 C58         -6.7070    -2.6500    -2.8120 c5         1 BEB      -0.066600
     36 C41          5.0150     1.9210    -1.1170 c5         1 BEB       0.160500
     37 C42          5.6280     0.7780    -1.8870 ca         1 BEB      -0.107800
     38 C47          6.5460     1.2160    -2.8210 ca         1 BEB      -0.079800
     39 C43          5.3630    -0.5920    -1.7230 ca         1 BEB      -0.077000
     40 C44          6.0470    -1.5200    -2.5320 ca         1 BEB      -0.114000
     41 C45          6.9850    -1.0720    -3.4860 ca         1 BEB      -0.107500
     42 C49          5.3700     3.1580    -2.0710 c5         1 BEB       0.154300
     43 O50          4.3330     3.4750    -3.0200 oh         1 BEB      -0.662500
     44 C46          7.2410     0.3060    -3.6330 ca         1 BEB      -0.097000
     45 C48          6.6880     2.7160    -2.8230 c5         1 BEB      -0.066600
     46 H24          2.2460     3.2660     4.1080 ha         1 BEB       0.118500
     47 H25          1.1680     3.9220     6.2520 ha         1 BEB       0.112500
     48 H26         -1.1770     4.7700     6.2660 ha         1 BEB       0.111000
     49 H27         -2.4430     4.9600     4.1270 ha         1 BEB       0.112500
     50 H28         -1.3720     4.3070     1.9790 ha         1 BEB       0.118500
     51 H34         -2.1790    -3.3800     4.0480 ha         1 BEB       0.118500
     52 H35         -1.0760    -4.0920     6.1610 ha         1 BEB       0.112500
     53 H36          1.2670    -4.9440     6.1230 ha         1 BEB       0.111000
     54 H37          2.5070    -5.0810     3.9640 ha         1 BEB       0.112500
     55 H38          1.4100    -4.3710     1.8470 ha         1 BEB       0.118500
     56 H321        -2.2190    -3.5630     1.5840 h1         1 BEB       0.034950
     57 H322        -0.7600    -4.0090     0.6750 h1         1 BEB       0.034950
     58 H9          -1.0630    -2.0500    -0.7970 h1         1 BEB       0.037200
     59 H7          -1.1030     0.5450     0.8050 h1         1 BEB       0.131200
     60 H5           1.1290    -0.5760     0.7760 h1         1 BEB       0.131200
     61 H4           1.0700     2.0610    -0.7560 h1         1 BEB       0.037200
     62 HN1          2.9660     2.2830    -1.7690 hn         1 BEB       0.324000
     63 H221         2.2550     3.5100     1.6500 h1         1 BEB       0.034950
     64 H222         0.7850     3.9800     0.7710 h1         1 BEB       0.034950
     65 HO6          1.1560     0.0270    -2.0460 ho         1 BEB       0.492000
     66 HO8         -1.1650     0.0170    -2.0320 ho         1 BEB       0.492000
     67 H12         -2.9720    -2.2450    -1.7920 hn         1 BEB       0.324000
     68 H51         -5.4940    -2.0420    -0.1270 h1         1 BEB       0.096200
     69 H53         -4.6360     0.9480    -0.9010 ha         1 BEB       0.130000
     70 H54         -5.8660     2.6370    -2.2760 ha         1 BEB       0.113000
     71 H55         -7.5470     1.8900    -3.9650 ha         1 BEB       0.111500
     72 H59         -5.5710    -4.0190    -1.4980 h1         1 BEB       0.048200
     73 H60         -4.6970    -4.1300    -3.6240 ho         1 BEB       0.446500
     74 H56         -8.0020    -0.5510    -4.2810 ha         1 BEB       0.112500
     75 H581        -6.7960    -3.0460    -3.8300 hc         1 BEB       0.059950
     76 H582        -7.5940    -2.9760    -2.2560 hc         1 BEB       0.059950
     77 H41          5.5080     2.0350    -0.1410 h1         1 BEB       0.096200
     78 H43          4.6400    -0.9330    -0.9840 ha         1 BEB       0.130000
     79 H44          5.8530    -2.5840    -2.4190 ha         1 BEB       0.113000
     80 H45          7.5140    -1.7910    -4.1080 ha         1 BEB       0.111500
     81 H49          5.5680     4.0490    -1.4590 h1         1 BEB       0.048200
     82 H50          4.6680     4.2170    -3.5700 ho         1 BEB       0.446500
     83 H46          7.9650     0.6580    -4.3640 ha         1 BEB       0.112500
     84 H481         6.7650     3.1390    -3.8310 hc         1 BEB       0.059950
     85 H482         7.5820     3.0270    -2.2700 hc         1 BEB       0.059950
     86 C10         -2.9300    -1.3850     0.0920 c          1 BEB       0.569600
     87 O11         -3.5630    -0.9950     1.0670 o          1 BEB      -0.576600
     88 C32         -1.1360    -3.3980     1.5060 c3         1 BEB       0.209400
@<TRIPOS>BOND
     1     1     2 ar  
     2     1     6 ar  
     3     1    22 1   
     4     2     3 ar  
     5     2    46 1   
     6     3     4 ar  
     7     3    47 1   
     8     4     5 ar  
     9     4    48 1   
    10     5     6 ar  
    11     5    49 1   
    12     6    50 1   
    13     7     8 ar  
    14     7    12 ar  
    15     7    88 1   
    16     8     9 ar  
    17     8    51 1   
    18     9    10 ar  
    19     9    52 1   
    20    10    11 ar  
    21    10    53 1   
    22    11    12 ar  
    23    11    54 1   
    24    12    55 1   
    25    13    14 1   
    26    13    88 1   
    27    14    15 1   
    28    14    58 1   
    29    14    86 1   
    30    15    16 1   
    31    15    24 1   
    32    15    59 1   
    33    16    17 1   
    34    16    23 1   
    35    16    60 1   
    36    17    18 1   
    37    17    21 1   
    38    17    61 1   
    39    18    19 2   
    40    18    20 1   
    41    20    36 1   
    42    20    62 1   
    43    21    22 1   
    44    22    63 1   
    45    22    64 1   
    46    23    65 1   
    47    24    66 1   
    48    25    26 1   
    49    25    67 1   
    50    25    86 1   
    51    26    27 1   
    52    26    32 1   
    53    26    68 1   
    54    27    28 ar  
    55    27    29 ar  
    56    28    34 ar  
    57    28    35 1   
    58    29    30 ar  
    59    29    69 1   
    60    30    31 ar  
    61    30    70 1   
    62    31    34 ar  
    63    31    71 1   
    64    32    33 1   
    65    32    35 1   
    66    32    72 1   
    67    33    73 1   
    68    34    74 1   
    69    35    75 1   
    70    35    76 1   
    71    36    37 1   
    72    36    42 1   
    73    36    77 1   
    74    37    38 ar  
    75    37    39 ar  
    76    38    44 ar  
    77    38    45 1   
    78    39    40 ar  
    79    39    78 1   
    80    40    41 ar  
    81    40    79 1   
    82    41    44 ar  
    83    41    80 1   
    84    42    43 1   
    85    42    45 1   
    86    42    81 1   
    87    43    82 1   
    88    44    83 1   
    89    45    84 1   
    90    45    85 1   
    91    56    88 1   
    92    57    88 1   
    93    86    87 2   
@<TRIPOS>SUBSTRUCTURE
     1 BEB         1 TEMP              0 ****  ****    0 ROOT
