@<TRIPOS>MOLECULE
BEC
   89    92     1     0     0
SMALL
No Charge or Current Charge


@<TRIPOS>ATOM
      1 C23         -0.8080    -3.9250    -0.4920 ca         1 BEC      -0.094300
      2 C24         -0.8630    -4.7270    -1.6500 ca         1 BEC      -0.091000
      3 C25         -2.1060    -5.1340    -2.1690 ca         1 BEC      -0.114500
      4 C26         -3.2980    -4.7410    -1.5360 ca         1 BEC      -0.107000
      5 C27         -3.2470    -3.9420    -0.3820 ca         1 BEC      -0.114500
      6 C28         -2.0070    -3.5340     0.1380 ca         1 BEC      -0.091000
      7 C33          0.7870     4.2630    -1.0800 ca         1 BEC      -0.092300
      8 C34          0.2940     4.5620    -2.3660 ca         1 BEC      -0.088000
      9 C35          1.1750     4.9620    -3.3870 ca         1 BEC      -0.117000
     10 C36          2.5520     5.0650    -3.1280 ca         1 BEC      -0.104000
     11 C37          3.0490     4.7660    -1.8490 ca         1 BEC      -0.117000
     12 C38          2.1690     4.3650    -0.8280 ca         1 BEC      -0.088000
     13 O31         -0.2550     2.3800    -0.0390 os         1 BEC      -0.427000
     14 C9          -1.0190     1.7380     1.0170 c3         1 BEC       0.075300
     15 C7          -0.4840     0.2750     1.1710 c3         1 BEC       0.137300
     16 C5           1.0750     0.1170     1.0040 c3         1 BEC       0.148300
     17 C4           1.5580    -1.3570     0.7950 c3         1 BEC       0.071300
     18 C2           2.9930    -1.4120     0.1740 c          1 BEC       0.571100
     19 O3           3.2910    -2.1140    -0.7840 o          1 BEC      -0.580100
     20 N1           3.9180    -0.5700     0.7580 ns         1 BEC      -0.489900
     21 O21          0.5780    -2.0350    -0.0340 os         1 BEC      -0.425000
     22 C22          0.5280    -3.4670     0.0780 c3         1 BEC       0.207900
     23 O6           1.7530     0.6980     2.1470 oh         1 BEC      -0.711000
     24 O8          -0.9030    -0.2820     2.4440 oh         1 BEC      -0.717000
     25 N12         -3.3080     0.7710     1.3090 ns         1 BEC      -0.489900
     26 C51         -4.7370     0.6590     0.9950 c5         1 BEC       0.163000
     27 C52         -5.0750    -0.3250    -0.1000 ca         1 BEC      -0.106300
     28 C57         -6.1080    -1.1660     0.2620 ca         1 BEC      -0.081300
     29 C53         -4.4740    -0.4250    -1.3670 ca         1 BEC      -0.075000
     30 C54         -4.9400    -1.4030    -2.2670 ca         1 BEC      -0.112000
     31 C55         -5.9990    -2.2590    -1.8980 ca         1 BEC      -0.112000
     32 C59         -5.4080    -0.0580     2.2590 c5         1 BEC       0.156300
     33 O60         -4.5120    -0.9300     2.9740 oh         1 BEC      -0.657000
     34 C56         -6.5910    -2.1420    -0.6250 ca         1 BEC      -0.098000
     35 C58         -6.6110    -0.8860     1.6540 c5         1 BEC      -0.067100
     36 C41          5.2960    -0.3290     0.2710 c3         1 BEC       0.032700
     37 C42          5.3950     1.0390    -0.4770 c3         1 BEC      -0.065700
     38 C43          4.4860     1.0950    -1.7290 c3         1 BEC      -0.091600
     39 C44          5.1330     2.2520     0.4490 c3         1 BEC      -0.091600
     40 C45          6.3220    -0.4510     1.4400 c          1 BEC       0.586100
     41 O46          5.9960    -0.5550     2.6180 o          1 BEC      -0.614100
     42 N47          7.6480    -0.4400     1.0620 ns         1 BEC      -0.500900
     43 C48          8.7740    -0.5370     1.9950 c3         1 BEC       0.093300
     44 H24          0.0540    -5.0320    -2.1480 ha         1 BEC       0.119000
     45 H25         -2.1440    -5.7510    -3.0640 ha         1 BEC       0.115500
     46 H26         -4.2580    -5.0540    -1.9400 ha         1 BEC       0.110000
     47 H27         -4.1670    -3.6340     0.1090 ha         1 BEC       0.115500
     48 H28         -1.9770    -2.9090     1.0280 ha         1 BEC       0.119000
     49 H34         -0.7710     4.4790    -2.5750 ha         1 BEC       0.120500
     50 H35          0.7890     5.1910    -4.3780 ha         1 BEC       0.111000
     51 H36          3.2330     5.3740    -3.9180 ha         1 BEC       0.109000
     52 H37          4.1150     4.8440    -1.6480 ha         1 BEC       0.111000
     53 H38          2.5600     4.1310     0.1600 ha         1 BEC       0.120500
     54 H321        -1.1430     4.2850    -0.1220 h1         1 BEC       0.038700
     55 H322         0.2300     4.1370     0.9940 h1         1 BEC       0.038700
     56 H9          -0.8500     2.2580     1.9690 h1         1 BEC       0.046700
     57 H7          -0.9520    -0.2870     0.3490 h1         1 BEC       0.120700
     58 H5           1.3630     0.6510     0.0870 h1         1 BEC       0.131700
     59 H4           1.6090    -1.8370     1.7810 h1         1 BEC       0.039700
     60 HN1          3.5740     0.0010     1.5260 hn         1 BEC       0.328500
     61 H221         1.3590    -3.9350    -0.4640 h1         1 BEC       0.039700
     62 H222         0.5850    -3.7800     1.1290 h1         1 BEC       0.039700
     63 HO6          1.4970     0.1690     2.9360 ho         1 BEC       0.492000
     64 HO8         -0.6900     0.3730     3.1480 ho         1 BEC       0.496000
     65 H12         -2.8240     0.1010     1.9020 hn         1 BEC       0.344500
     66 H51         -5.2220     1.6260     0.8030 h1         1 BEC       0.091700
     67 H53         -3.6620     0.2410    -1.6500 ha         1 BEC       0.126000
     68 H54         -4.4840    -1.4970    -3.2500 ha         1 BEC       0.117000
     69 H55         -6.3580    -3.0110    -2.5960 ha         1 BEC       0.110000
     70 H59         -5.7860     0.7020     2.9570 h1         1 BEC       0.045700
     71 H60         -5.0280    -1.3290     3.7070 ho         1 BEC       0.444000
     72 H56         -7.4080    -2.7990    -0.3340 ha         1 BEC       0.112000
     73 H581        -6.8310    -1.7960     2.2240 hc         1 BEC       0.058700
     74 H582        -7.5290    -0.2870     1.6280 hc         1 BEC       0.058700
     75 H41          5.5640    -1.1230    -0.4380 h1         1 BEC       0.088700
     76 H42          6.4250     1.1360    -0.8430 hc         1 BEC       0.042700
     77 H431         4.6760     2.0110    -2.3020 hc         1 BEC       0.041200
     78 H432         4.6780     0.2400    -2.3880 hc         1 BEC       0.041200
     79 H433         3.4250     1.0860    -1.4510 hc         1 BEC       0.041200
     80 H441         5.8290     2.2630     1.2960 hc         1 BEC       0.041200
     81 H442         5.2670     3.1920    -0.1000 hc         1 BEC       0.041200
     82 H443         4.1100     2.2330     0.8450 hc         1 BEC       0.041200
     83 H47          7.8460    -0.3560     0.0710 hn         1 BEC       0.319500
     84 H481         8.7410     0.3020     2.7020 h1         1 BEC       0.042700
     85 H482         8.7150    -1.4830     2.5480 h1         1 BEC       0.042700
     86 H483         9.7180    -0.5020     1.4360 h1         1 BEC       0.042700
     87 C10         -2.5620     1.7810     0.7300 c          1 BEC       0.567100
     88 O11         -3.0780     2.6100    -0.0120 o          1 BEC      -0.591100
     89 C32         -0.1630     3.8140     0.0210 c3         1 BEC       0.214900
@<TRIPOS>BOND
     1     1     2 ar  
     2     1     6 ar  
     3     1    22 1   
     4     2     3 ar  
     5     2    44 1   
     6     3     4 ar  
     7     3    45 1   
     8     4     5 ar  
     9     4    46 1   
    10     5     6 ar  
    11     5    47 1   
    12     6    48 1   
    13     7     8 ar  
    14     7    12 ar  
    15     7    89 1   
    16     8     9 ar  
    17     8    49 1   
    18     9    10 ar  
    19     9    50 1   
    20    10    11 ar  
    21    10    51 1   
    22    11    12 ar  
    23    11    52 1   
    24    12    53 1   
    25    13    14 1   
    26    13    89 1   
    27    14    15 1   
    28    14    56 1   
    29    14    87 1   
    30    15    16 1   
    31    15    24 1   
    32    15    57 1   
    33    16    17 1   
    34    16    23 1   
    35    16    58 1   
    36    17    18 1   
    37    17    21 1   
    38    17    59 1   
    39    18    19 2   
    40    18    20 1   
    41    20    36 1   
    42    20    60 1   
    43    21    22 1   
    44    22    61 1   
    45    22    62 1   
    46    23    63 1   
    47    24    64 1   
    48    25    26 1   
    49    25    65 1   
    50    25    87 1   
    51    26    27 1   
    52    26    32 1   
    53    26    66 1   
    54    27    28 ar  
    55    27    29 ar  
    56    28    34 ar  
    57    28    35 1   
    58    29    30 ar  
    59    29    67 1   
    60    30    31 ar  
    61    30    68 1   
    62    31    34 ar  
    63    31    69 1   
    64    32    33 1   
    65    32    35 1   
    66    32    70 1   
    67    33    71 1   
    68    34    72 1   
    69    35    73 1   
    70    35    74 1   
    71    36    37 1   
    72    36    40 1   
    73    36    75 1   
    74    37    38 1   
    75    37    39 1   
    76    37    76 1   
    77    38    77 1   
    78    38    78 1   
    79    38    79 1   
    80    39    80 1   
    81    39    81 1   
    82    39    82 1   
    83    40    41 2   
    84    40    42 1   
    85    42    43 1   
    86    42    83 1   
    87    43    84 1   
    88    43    85 1   
    89    43    86 1   
    90    54    89 1   
    91    55    89 1   
    92    87    88 2   
@<TRIPOS>SUBSTRUCTURE
     1 BEC         1 TEMP              0 ****  ****    0 ROOT
