@<TRIPOS>MOLECULE
BEC
   89    92     1     0     0
SMALL
abcg2


@<TRIPOS>ATOM
      1 C23         -0.1190    -3.8770    -0.8110 ca         1 BEC      -0.094300
      2 C24         -0.0390    -4.9370    -1.7070 ca         1 BEC      -0.091000
      3 C25         -1.1630    -5.6980    -2.0050 ca         1 BEC      -0.114500
      4 C26         -2.3820    -5.3960    -1.4150 ca         1 BEC      -0.107000
      5 C27         -2.4710    -4.3340    -0.5220 ca         1 BEC      -0.114500
      6 C28         -1.3480    -3.5790    -0.2230 ca         1 BEC      -0.091000
      7 C33          0.2990     4.5630    -1.5020 ca         1 BEC      -0.092300
      8 C34         -0.0760     5.4780    -2.4790 ca         1 BEC      -0.088000
      9 C35          0.8640     5.9950    -3.3640 ca         1 BEC      -0.117000
     10 C36          2.1890     5.5920    -3.2830 ca         1 BEC      -0.104000
     11 C37          2.5710     4.6740    -2.3100 ca         1 BEC      -0.117000
     12 C38          1.6330     4.1650    -1.4260 ca         1 BEC      -0.088000
     13 O31         -0.7870     2.6040    -0.7350 os         1 BEC      -0.427000
     14 C9          -1.3040     1.8720     0.3310 c3         1 BEC       0.075300
     15 C7          -0.6410     0.4740     0.3390 c3         1 BEC       0.137300
     16 C5           0.8620     0.5600     0.0490 c3         1 BEC       0.148300
     17 C4           1.5350    -0.8200     0.1390 c3         1 BEC       0.071300
     18 C2           2.9760    -0.6970    -0.3700 c          1 BEC       0.571100
     19 O3           3.2160    -0.7060    -1.5660 o          1 BEC      -0.580100
     20 N1           3.9000    -0.5610     0.5910 ns         1 BEC      -0.489900
     21 O21          0.8050    -1.7000    -0.6560 os         1 BEC      -0.425000
     22 C22          1.0970    -3.0680    -0.4630 c3         1 BEC       0.207900
     23 O6           1.5250     1.4830     0.8790 oh         1 BEC      -0.711000
     24 O8          -0.9140    -0.1920     1.5560 oh         1 BEC      -0.717000
     25 N12         -3.4430     0.9630     1.0750 ns         1 BEC      -0.489900
     26 C51         -4.8520     0.6830     1.0420 c5         1 BEC       0.163000
     27 C52         -5.2500    -0.5610     0.2830 ca         1 BEC      -0.106300
     28 C57         -6.3420    -1.1570     0.9040 ca         1 BEC      -0.081300
     29 C53         -4.7000    -1.0980    -0.8660 ca         1 BEC      -0.075000
     30 C54         -5.2630    -2.2550    -1.3990 ca         1 BEC      -0.112000
     31 C55         -6.3570    -2.8530    -0.7830 ca         1 BEC      -0.112000
     32 C59         -5.4540     0.4320     2.4370 c5         1 BEC       0.156300
     33 O60         -4.5190    -0.3350     3.1590 oh         1 BEC      -0.657000
     34 C56         -6.9040    -2.3080     0.3760 ca         1 BEC      -0.098000
     35 C58         -6.7270    -0.3710     2.1270 c5         1 BEC      -0.067100
     36 C41          5.3050    -0.3600     0.3470 c3         1 BEC       0.032700
     37 C42          5.7260     1.1240     0.4570 c3         1 BEC      -0.065700
     38 C43          5.0630     1.9670    -0.6260 c3         1 BEC      -0.091600
     39 C44          5.4410     1.7070     1.8370 c3         1 BEC      -0.091600
     40 C45          6.0950    -1.2210     1.3320 c          1 BEC       0.586100
     41 O46          5.5910    -1.6670     2.3540 o          1 BEC      -0.614100
     42 N47          7.3750    -1.4180     1.0060 ns         1 BEC      -0.500900
     43 C48          8.2870    -2.1590     1.8470 c3         1 BEC       0.093300
     44 H24          0.9080    -5.1710    -2.1790 ha         1 BEC       0.119000
     45 H25         -1.0870    -6.5200    -2.7050 ha         1 BEC       0.115500
     46 H26         -3.2600    -5.9850    -1.6480 ha         1 BEC       0.110000
     47 H27         -3.4210    -4.0910    -0.0620 ha         1 BEC       0.115500
     48 H28         -1.4240    -2.7560     0.4780 ha         1 BEC       0.119000
     49 H34         -1.1110     5.7920    -2.5510 ha         1 BEC       0.120500
     50 H35          0.5580     6.7080    -4.1190 ha         1 BEC       0.111000
     51 H36          2.9210     5.9910    -3.9720 ha         1 BEC       0.109000
     52 H37          3.6050     4.3580    -2.2400 ha         1 BEC       0.111000
     53 H38          1.9370     3.4580    -0.6630 ha         1 BEC       0.120500
     54 H321        -1.6820     4.4790    -0.6890 h1         1 BEC       0.038700
     55 H322        -0.3940     4.2170     0.4900 h1         1 BEC       0.038700
     56 H9          -1.0710     2.3600     1.2910 h1         1 BEC       0.046700
     57 H7          -1.0940    -0.1430    -0.4400 h1         1 BEC       0.120700
     58 H5           0.9840     0.9300    -0.9700 h1         1 BEC       0.131700
     59 H4           1.5340    -1.1560     1.1880 h1         1 BEC       0.039700
     60 HN1          3.6150    -0.6650     1.5520 hn         1 BEC       0.328500
     61 H221         1.9510    -3.3790    -1.0760 h1         1 BEC       0.039700
     62 H222         1.3720    -3.2510     0.5840 h1         1 BEC       0.039700
     63 HO6          1.5870     1.1450     1.7790 ho         1 BEC       0.492000
     64 HO8         -0.5430     0.3040     2.2940 ho         1 BEC       0.496000
     65 H12         -2.8630     0.3770     1.6610 hn         1 BEC       0.344500
     66 H51         -5.3610     1.5460     0.6050 h1         1 BEC       0.091700
     67 H53         -3.8440    -0.6400    -1.3480 ha         1 BEC       0.126000
     68 H54         -4.8420    -2.6950    -2.2930 ha         1 BEC       0.117000
     69 H55         -6.7810    -3.7560    -1.2040 ha         1 BEC       0.110000
     70 H59         -5.6770     1.3740     2.9490 h1         1 BEC       0.045700
     71 H60         -4.8480    -0.4540     4.0540 ho         1 BEC       0.444000
     72 H56         -7.7480    -2.7850     0.8590 ha         1 BEC       0.112000
     73 H581        -7.0480    -0.9870     2.9700 hc         1 BEC       0.058700
     74 H582        -7.5510     0.3130     1.9020 hc         1 BEC       0.058700
     75 H41          5.5230    -0.7020    -0.6670 h1         1 BEC       0.088700
     76 H42          6.8070     1.1530     0.2850 hc         1 BEC       0.042700
     77 H431         5.4410     2.9900    -0.5860 hc         1 BEC       0.041200
     78 H432         5.2610     1.5770    -1.6250 hc         1 BEC       0.041200
     79 H433         3.9820     2.0110    -0.4860 hc         1 BEC       0.041200
     80 H441         5.9430     1.1650     2.6380 hc         1 BEC       0.041200
     81 H442         5.7800     2.7430     1.8840 hc         1 BEC       0.041200
     82 H443         4.3690     1.7090     2.0470 hc         1 BEC       0.041200
     83 H47          7.7260    -1.0410     0.1420 hn         1 BEC       0.319500
     84 H481         8.4640    -1.6540     2.7970 h1         1 BEC       0.042700
     85 H482         7.9120    -3.1610     2.0550 h1         1 BEC       0.042700
     86 H483         9.2360    -2.2500     1.3270 h1         1 BEC       0.042700
     87 C10         -2.8360     1.7840     0.2030 c          1 BEC       0.567100
     88 O11         -3.4320     2.4410    -0.6350 o          1 BEC      -0.591100
     89 C32         -0.7080     4.0020    -0.5390 c3         1 BEC       0.214900
@<TRIPOS>BOND
     1     1     2 ar  
     2     1     6 ar  
     3     1    22 1   
     4     2     3 ar  
     5     2    44 1   
     6     3     4 ar  
     7     3    45 1   
     8     4     5 ar  
     9     4    46 1   
    10     5     6 ar  
    11     5    47 1   
    12     6    48 1   
    13     7     8 ar  
    14     7    12 ar  
    15     7    89 1   
    16     8     9 ar  
    17     8    49 1   
    18     9    10 ar  
    19     9    50 1   
    20    10    11 ar  
    21    10    51 1   
    22    11    12 ar  
    23    11    52 1   
    24    12    53 1   
    25    13    14 1   
    26    13    89 1   
    27    14    15 1   
    28    14    56 1   
    29    14    87 1   
    30    15    16 1   
    31    15    24 1   
    32    15    57 1   
    33    16    17 1   
    34    16    23 1   
    35    16    58 1   
    36    17    18 1   
    37    17    21 1   
    38    17    59 1   
    39    18    19 2   
    40    18    20 1   
    41    20    36 1   
    42    20    60 1   
    43    21    22 1   
    44    22    61 1   
    45    22    62 1   
    46    23    63 1   
    47    24    64 1   
    48    25    26 1   
    49    25    65 1   
    50    25    87 1   
    51    26    27 1   
    52    26    32 1   
    53    26    66 1   
    54    27    28 ar  
    55    27    29 ar  
    56    28    34 ar  
    57    28    35 1   
    58    29    30 ar  
    59    29    67 1   
    60    30    31 ar  
    61    30    68 1   
    62    31    34 ar  
    63    31    69 1   
    64    32    33 1   
    65    32    35 1   
    66    32    70 1   
    67    33    71 1   
    68    34    72 1   
    69    35    73 1   
    70    35    74 1   
    71    36    37 1   
    72    36    40 1   
    73    36    75 1   
    74    37    38 1   
    75    37    39 1   
    76    37    76 1   
    77    38    77 1   
    78    38    78 1   
    79    38    79 1   
    80    39    80 1   
    81    39    81 1   
    82    39    82 1   
    83    40    41 2   
    84    40    42 1   
    85    42    43 1   
    86    42    83 1   
    87    43    84 1   
    88    43    85 1   
    89    43    86 1   
    90    54    89 1   
    91    55    89 1   
    92    87    88 2   
@<TRIPOS>SUBSTRUCTURE
     1 BEC         1 TEMP              0 ****  ****    0 ROOT
