@<TRIPOS>MOLECULE
BED
   88    93     1     0     0
SMALL
abcg2


@<TRIPOS>ATOM
      1 C01         -3.8420    -1.1290    -1.6020 ca         1 BED      -0.118300
      2 C02         -2.9740    -2.1670    -1.9260 ca         1 BED      -0.061500
      3 C03         -3.2170    -2.9900    -3.0190 ca         1 BED      -0.129000
      4 C04         -4.3400    -2.7900    -3.8080 ca         1 BED      -0.087500
      5 C05         -5.2240    -1.7620    -3.5060 ca         1 BED      -0.151000
      6 C06         -4.9530    -0.9620    -2.4160 ca         1 BED       0.167000
      7 C07          3.9470    -1.1000     1.3110 ca         1 BED      -0.118300
      8 C08          5.2810    -1.0570     1.6880 ca         1 BED       0.167000
      9 C09          5.7880    -1.7530     2.7660 ca         1 BED      -0.151000
     10 C10          4.9230    -2.5430     3.5100 ca         1 BED      -0.087500
     11 C11          3.5830    -2.6180     3.1600 ca         1 BED      -0.129000
     12 C12          3.1000    -1.8990     2.0730 ca         1 BED      -0.061500
     13 O14          2.1080    -0.4830    -0.0480 os         1 BED      -0.432500
     14 C15          1.5050     0.3930    -0.9470 c3         1 BED       0.071800
     15 C16         -0.0170     0.3330    -0.7020 c3         1 BED       0.137800
     16 C17         -0.3540     0.4930     0.7840 c3         1 BED       0.137800
     17 C18         -1.8830     0.4610     1.0200 c3         1 BED       0.071800
     18 C19         -2.2510     0.1840     2.4900 c          1 BED       0.570600
     19 O20         -3.1220    -0.6210     2.7700 o          1 BED      -0.584100
     20 N21         -1.5620     0.8970     3.3970 ns         1 BED      -0.484400
     21 O22         -2.4410    -0.5340     0.2210 os         1 BED      -0.432500
     22 C23         -3.6310    -0.1980    -0.4390 c3         1 BED       0.218400
     23 O24          0.2080     1.6680     1.3340 oh         1 BED      -0.707000
     24 O25         -0.6930     1.2600    -1.5110 oh         1 BED      -0.707000
     25 N28          1.7260     0.9280    -3.3060 ns         1 BED      -0.484400
     26 C29          1.7030     0.6750    -4.7210 c5         1 BED       0.162000
     27 C30          0.3320     0.4510    -5.3190 ca         1 BED      -0.108300
     28 C31          0.2920     0.9880    -6.6010 ca         1 BED      -0.080300
     29 C32         -0.7730    -0.1800    -4.7740 ca         1 BED      -0.073000
     30 C33         -1.9340    -0.2710    -5.5370 ca         1 BED      -0.112000
     31 C34         -1.9770     0.2620    -6.8210 ca         1 BED      -0.107000
     32 C35          2.2400     1.8550    -5.5500 c5         1 BED       0.155800
     33 O36          1.7470     3.0350    -4.9550 oh         1 BED      -0.659500
     34 C37         -0.8610     0.8970    -7.3620 ca         1 BED      -0.097500
     35 C38          1.6160     1.6190    -6.9340 c5         1 BED      -0.067100
     36 C39         -1.6830     0.7290     4.8180 c5         1 BED       0.162000
     37 C40         -0.3890     0.3570     5.5020 ca         1 BED      -0.108300
     38 C41         -0.3490     0.9290     6.7690 ca         1 BED      -0.080300
     39 C42          0.6530    -0.4230     5.0350 ca         1 BED      -0.073000
     40 C43          1.7540    -0.6300     5.8630 ca         1 BED      -0.112000
     41 C44          1.7950    -0.0670     7.1330 ca         1 BED      -0.107000
     42 C45         -2.1090     1.9980     5.5810 c5         1 BED       0.155800
     43 O46         -1.4390     3.0800     4.9800 oh         1 BED      -0.659500
     44 C47          0.7420     0.7190     7.5950 ca         1 BED      -0.097500
     45 C48         -1.5990     1.7310     7.0050 c5         1 BED      -0.067100
     46 F49         -5.8080     0.0360    -2.1190 f          1 BED      -0.186000
     47 F50          6.1160    -0.2900     0.9610 f          1 BED      -0.186000
     48 H2          -2.0970    -2.3410    -1.3180 ha         1 BED       0.132000
     49 H3          -2.5240    -3.7880    -3.2510 ha         1 BED       0.120500
     50 H4          -4.5320    -3.4280    -4.6610 ha         1 BED       0.117000
     51 H5          -6.1060    -1.5850    -4.1060 ha         1 BED       0.130500
     52 H9           6.8380    -1.6760     3.0160 ha         1 BED       0.130500
     53 H10          5.3010    -3.0980     4.3590 ha         1 BED       0.117000
     54 H11          2.9060    -3.2390     3.7320 ha         1 BED       0.120500
     55 H12          2.0530    -1.9700     1.8160 ha         1 BED       0.132000
     56 H131         4.0430    -0.5940    -0.7680 h1         1 BED       0.047950
     57 H132         3.7070     0.7690     0.2980 h1         1 BED       0.047950
     58 H15          1.8600     1.4240    -0.7920 h1         1 BED       0.050200
     59 H16         -0.3670    -0.6530    -1.0150 h1         1 BED       0.117700
     60 H17          0.1040    -0.3370     1.3250 h1         1 BED       0.117700
     61 H18         -2.2910     1.4500     0.7580 h1         1 BED       0.050200
     62 H21         -0.8390     1.5160     3.0580 hn         1 BED       0.334000
     63 H231        -4.4860    -0.2540     0.2460 h1         1 BED       0.047950
     64 H232        -3.5850     0.8340    -0.8090 h1         1 BED       0.047950
     65 H24         -0.2120     2.4450     0.9460 ho         1 BED       0.496000
     66 H25         -0.3880     2.1530    -1.3160 ho         1 BED       0.496000
     67 H28          1.4890     1.8630    -3.0130 hn         1 BED       0.334000
     68 H29          2.3320    -0.1960    -4.9230 h1         1 BED       0.094200
     69 H32         -0.7530    -0.5890    -3.7720 ha         1 BED       0.123000
     70 H33         -2.8090    -0.7540    -5.1220 ha         1 BED       0.116500
     71 H34         -2.8880     0.1930    -7.4010 ha         1 BED       0.110500
     72 H35          3.3340     1.8540    -5.5830 h1         1 BED       0.047700
     73 H36          2.2090     3.7870    -5.3370 ho         1 BED       0.444500
     74 H37         -0.9050     1.3210    -8.3580 ha         1 BED       0.112000
     75 H381         1.5370     2.5370    -7.5190 hc         1 BED       0.059450
     76 H382         2.2380     0.9260    -7.5090 hc         1 BED       0.059450
     77 H39         -2.4290    -0.0480     5.0020 h1         1 BED       0.094200
     78 H42          0.6250    -0.8600     4.0430 ha         1 BED       0.123000
     79 H43          2.5860    -1.2270     5.5120 ha         1 BED       0.116500
     80 H44          2.6580    -0.2320     7.7660 ha         1 BED       0.110500
     81 H45         -3.1960     2.1360     5.5520 h1         1 BED       0.047700
     82 H46         -1.6410     3.8780     5.4780 ho         1 BED       0.444500
     83 H47          0.7860     1.1650     8.5820 ha         1 BED       0.112000
     84 H481        -1.4370     2.6490     7.5750 hc         1 BED       0.059450
     85 H482        -2.3340     1.1390     7.5590 hc         1 BED       0.059450
     86 C26          1.7770    -0.0500    -2.3900 c          1 BED       0.570600
     87 O27          1.9860    -1.2220    -2.6550 o          1 BED      -0.584100
     88 C13          3.4850    -0.2940     0.1280 c3         1 BED       0.218400
@<TRIPOS>BOND
     1     1     2 ar  
     2     1     6 ar  
     3     1    22 1   
     4     2     3 ar  
     5     2    48 1   
     6     3     4 ar  
     7     3    49 1   
     8     4     5 ar  
     9     4    50 1   
    10     5     6 ar  
    11     5    51 1   
    12     6    46 1   
    13     7     8 ar  
    14     7    12 ar  
    15     7    88 1   
    16     8     9 ar  
    17     8    47 1   
    18     9    10 ar  
    19     9    52 1   
    20    10    11 ar  
    21    10    53 1   
    22    11    12 ar  
    23    11    54 1   
    24    12    55 1   
    25    13    14 1   
    26    13    88 1   
    27    14    15 1   
    28    14    58 1   
    29    14    86 1   
    30    15    16 1   
    31    15    24 1   
    32    15    59 1   
    33    16    17 1   
    34    16    23 1   
    35    16    60 1   
    36    17    18 1   
    37    17    21 1   
    38    17    61 1   
    39    18    19 2   
    40    18    20 1   
    41    20    36 1   
    42    20    62 1   
    43    21    22 1   
    44    22    63 1   
    45    22    64 1   
    46    23    65 1   
    47    24    66 1   
    48    25    26 1   
    49    25    67 1   
    50    25    86 1   
    51    26    27 1   
    52    26    32 1   
    53    26    68 1   
    54    27    28 ar  
    55    27    29 ar  
    56    28    34 ar  
    57    28    35 1   
    58    29    30 ar  
    59    29    69 1   
    60    30    31 ar  
    61    30    70 1   
    62    31    34 ar  
    63    31    71 1   
    64    32    33 1   
    65    32    35 1   
    66    32    72 1   
    67    33    73 1   
    68    34    74 1   
    69    35    75 1   
    70    35    76 1   
    71    36    37 1   
    72    36    42 1   
    73    36    77 1   
    74    37    38 ar  
    75    37    39 ar  
    76    38    44 ar  
    77    38    45 1   
    78    39    40 ar  
    79    39    78 1   
    80    40    41 ar  
    81    40    79 1   
    82    41    44 ar  
    83    41    80 1   
    84    42    43 1   
    85    42    45 1   
    86    42    81 1   
    87    43    82 1   
    88    44    83 1   
    89    45    84 1   
    90    45    85 1   
    91    56    88 1   
    92    57    88 1   
    93    86    87 2   
@<TRIPOS>SUBSTRUCTURE
     1 BED         1 TEMP              0 ****  ****    0 ROOT
