@<TRIPOS>MOLECULE
BED
   88    93     1     0     0
SMALL
No Charge or Current Charge


@<TRIPOS>ATOM
      1 C01         -3.8140    -0.3950    -1.6660 ca         1 BED      -0.118300
      2 C02         -4.2640    -1.7280    -1.5830 ca         1 BED      -0.061500
      3 C03         -4.5620    -2.4510    -2.7520 ca         1 BED      -0.129000
      4 C04         -4.4110    -1.8490    -4.0130 ca         1 BED      -0.087500
      5 C05         -3.9600    -0.5220    -4.1020 ca         1 BED      -0.151000
      6 C06         -3.6600     0.1990    -2.9360 ca         1 BED       0.167000
      7 C07          4.0240    -1.4280     1.1690 ca         1 BED      -0.118300
      8 C08          3.9980    -1.1760     2.5570 ca         1 BED       0.167000
      9 C09          4.1960    -2.2210     3.4750 ca         1 BED      -0.151000
     10 C10          4.4210    -3.5290     3.0140 ca         1 BED      -0.087500
     11 C11          4.4440    -3.7890     1.6340 ca         1 BED      -0.129000
     12 C12          4.2460    -2.7440     0.7140 ca         1 BED      -0.061500
     13 O14          2.3930    -0.2690    -0.1440 os         1 BED      -0.432500
     14 C15          1.9620     0.8010    -1.0290 c3         1 BED       0.071800
     15 C16          0.4490     1.0920    -0.7460 c3         1 BED       0.137800
     16 C17          0.0190     0.9580     0.7620 c3         1 BED       0.137800
     17 C18         -1.5310     0.9160     0.9920 c3         1 BED       0.071800
     18 C19         -1.9230     0.4010     2.4220 c          1 BED       0.570600
     19 O20         -2.9310    -0.2640     2.6400 o          1 BED      -0.584100
     20 N21         -1.0110     0.6740     3.4230 ns         1 BED      -0.484400
     21 O22         -2.1140     0.0980    -0.0590 os         1 BED      -0.432500
     22 C23         -3.4840     0.3770    -0.3960 c3         1 BED       0.218400
     23 O24          0.6120     2.0320     1.5380 oh         1 BED      -0.707000
     24 O25          0.1010     2.4100    -1.2400 oh         1 BED      -0.707000
     25 N28          1.4620     1.1610    -3.4480 ns         1 BED      -0.484400
     26 C29          1.5170     0.7980    -4.8690 c5         1 BED       0.162000
     27 C30          0.4080    -0.1170    -5.3280 ca         1 BED      -0.108300
     28 C31         -0.1950     0.3380    -6.4830 ca         1 BED      -0.080300
     29 C32         -0.0100    -1.3140    -4.7200 ca         1 BED      -0.073000
     30 C33         -1.0600    -2.0460    -5.3080 ca         1 BED      -0.112000
     31 C34         -1.6730    -1.5810    -6.4900 ca         1 BED      -0.107000
     32 C35          1.1660     2.1330    -5.6800 c5         1 BED       0.155800
     33 O36          0.3400     3.0590    -4.9490 oh         1 BED      -0.659500
     34 C37         -1.2410    -0.3800    -7.0850 ca         1 BED      -0.097500
     35 C38          0.4110     1.6280    -6.9740 c5         1 BED      -0.067100
     36 C39         -1.3100     0.2610     4.8000 c5         1 BED       0.162000
     37 C40         -0.1320     0.3250     5.7370 ca         1 BED      -0.108300
     38 C41         -0.4560     0.9340     6.9330 ca         1 BED      -0.080300
     39 C42          1.1640    -0.1660     5.5020 ca         1 BED      -0.073000
     40 C43          2.1380    -0.0210     6.5090 ca         1 BED      -0.112000
     41 C44          1.8070     0.6010     7.7310 ca         1 BED      -0.107000
     42 C45         -2.2690     1.3760     5.4410 c5         1 BED       0.155800
     43 O46         -2.0870     2.6940     4.8900 oh         1 BED      -0.659500
     44 C47          0.5010     1.0810     7.9500 ca         1 BED      -0.097500
     45 C48         -1.8980     1.3720     6.9770 c5         1 BED      -0.067100
     46 F49         -3.2240     1.4750    -3.0480 f          1 BED      -0.186000
     47 F50          3.7820     0.0750     3.0230 f          1 BED      -0.186000
     48 H2          -4.3800    -2.2050    -0.6110 ha         1 BED       0.132000
     49 H3          -4.9080    -3.4800    -2.6800 ha         1 BED       0.120500
     50 H4          -4.6400    -2.4100    -4.9170 ha         1 BED       0.117000
     51 H5          -3.8360    -0.0510    -5.0740 ha         1 BED       0.130500
     52 H9           4.1760    -2.0140     4.5410 ha         1 BED       0.130500
     53 H10          4.5740    -4.3390     3.7250 ha         1 BED       0.117000
     54 H11          4.6150    -4.8020     1.2750 ha         1 BED       0.120500
     55 H12          4.2600    -2.9560    -0.3540 ha         1 BED       0.132000
     56 H131         4.3970    -0.4980    -0.7360 h1         1 BED       0.047950
     57 H132         4.1310     0.6480     0.5890 h1         1 BED       0.047950
     58 H15          2.5260     1.7160    -0.8090 h1         1 BED       0.050200
     59 H16         -0.1060     0.3270    -1.3080 h1         1 BED       0.117700
     60 H17          0.3940    -0.0110     1.1210 h1         1 BED       0.117700
     61 H18         -1.9030     1.9460     0.9120 h1         1 BED       0.050200
     62 H21         -0.2060     1.2390     3.1680 hn         1 BED       0.334000
     63 H231        -4.1630     0.0670     0.4090 h1         1 BED       0.047950
     64 H232        -3.6350     1.4510    -0.5660 h1         1 BED       0.047950
     65 H24          0.1420     2.8650     1.3030 ho         1 BED       0.496000
     66 H25          0.7260     3.0560    -0.8390 ho         1 BED       0.496000
     67 H28          0.8210     1.8650    -3.0880 hn         1 BED       0.334000
     68 H29          2.4940     0.4050    -5.1850 h1         1 BED       0.094200
     69 H32          0.4700    -1.6720    -3.8120 ha         1 BED       0.123000
     70 H33         -1.3980    -2.9720    -4.8480 ha         1 BED       0.116500
     71 H34         -2.4830    -2.1500    -6.9410 ha         1 BED       0.110500
     72 H35          2.0960     2.6450    -5.9640 h1         1 BED       0.047700
     73 H36          0.1650     3.8180    -5.5470 ho         1 BED       0.444500
     74 H37         -1.7090    -0.0160    -7.9970 ha         1 BED       0.112000
     75 H381        -0.3370     2.3430    -7.3370 hc         1 BED       0.059450
     76 H382         1.1130     1.4450    -7.7950 hc         1 BED       0.059450
     77 H39         -1.7700    -0.7360     4.8570 h1         1 BED       0.094200
     78 H42          1.4110    -0.6490     4.5590 ha         1 BED       0.123000
     79 H43          3.1480    -0.3920     6.3440 ha         1 BED       0.116500
     80 H44          2.5620     0.7090     8.5070 ha         1 BED       0.110500
     81 H45         -3.3190     1.0810     5.3050 h1         1 BED       0.047700
     82 H46         -2.6960     3.2920     5.3750 ho         1 BED       0.444500
     83 H47          0.2390     1.5600     8.8910 ha         1 BED       0.112000
     84 H481        -2.0350     2.3510     7.4510 hc         1 BED       0.059450
     85 H482        -2.5110     0.6520     7.5310 hc         1 BED       0.059450
     86 C26          2.2180     0.4500    -2.5360 c          1 BED       0.570600
     87 O27          2.9880    -0.4350    -2.8930 o          1 BED      -0.584100
     88 C13          3.7980    -0.3080     0.1640 c3         1 BED       0.218400
@<TRIPOS>BOND
     1     1     2 ar  
     2     1     6 ar  
     3     1    22 1   
     4     2     3 ar  
     5     2    48 1   
     6     3     4 ar  
     7     3    49 1   
     8     4     5 ar  
     9     4    50 1   
    10     5     6 ar  
    11     5    51 1   
    12     6    46 1   
    13     7     8 ar  
    14     7    12 ar  
    15     7    88 1   
    16     8     9 ar  
    17     8    47 1   
    18     9    10 ar  
    19     9    52 1   
    20    10    11 ar  
    21    10    53 1   
    22    11    12 ar  
    23    11    54 1   
    24    12    55 1   
    25    13    14 1   
    26    13    88 1   
    27    14    15 1   
    28    14    58 1   
    29    14    86 1   
    30    15    16 1   
    31    15    24 1   
    32    15    59 1   
    33    16    17 1   
    34    16    23 1   
    35    16    60 1   
    36    17    18 1   
    37    17    21 1   
    38    17    61 1   
    39    18    19 2   
    40    18    20 1   
    41    20    36 1   
    42    20    62 1   
    43    21    22 1   
    44    22    63 1   
    45    22    64 1   
    46    23    65 1   
    47    24    66 1   
    48    25    26 1   
    49    25    67 1   
    50    25    86 1   
    51    26    27 1   
    52    26    32 1   
    53    26    68 1   
    54    27    28 ar  
    55    27    29 ar  
    56    28    34 ar  
    57    28    35 1   
    58    29    30 ar  
    59    29    69 1   
    60    30    31 ar  
    61    30    70 1   
    62    31    34 ar  
    63    31    71 1   
    64    32    33 1   
    65    32    35 1   
    66    32    72 1   
    67    33    73 1   
    68    34    74 1   
    69    35    75 1   
    70    35    76 1   
    71    36    37 1   
    72    36    42 1   
    73    36    77 1   
    74    37    38 ar  
    75    37    39 ar  
    76    38    44 ar  
    77    38    45 1   
    78    39    40 ar  
    79    39    78 1   
    80    40    41 ar  
    81    40    79 1   
    82    41    44 ar  
    83    41    80 1   
    84    42    43 1   
    85    42    45 1   
    86    42    81 1   
    87    43    82 1   
    88    44    83 1   
    89    45    84 1   
    90    45    85 1   
    91    56    88 1   
    92    57    88 1   
    93    86    87 2   
@<TRIPOS>SUBSTRUCTURE
     1 BED         1 TEMP              0 ****  ****    0 ROOT
