@<TRIPOS>MOLECULE
BEE
  104   107     1     0     0
SMALL
bcc


@<TRIPOS>ATOM
      1 C1           4.1470     1.0580    -0.1780 ca         1 BEE      -0.090800
      2 C2           5.0380     1.4290    -1.1780 ca         1 BEE      -0.108250
      3 C3           6.0360     0.5640    -1.6020 ca         1 BEE      -0.124000
      4 C4           6.1730    -0.7020    -1.0340 ca         1 BEE      -0.006000
      5 C5           5.2710    -1.0710    -0.0320 ca         1 BEE      -0.124000
      6 C6           4.2740    -0.2090     0.3860 ca         1 BEE      -0.108250
      7 C7          -4.1830    -1.0730    -0.0250 ca         1 BEE      -0.090800
      8 C8          -5.0910    -1.4860    -0.9920 ca         1 BEE      -0.108250
      9 C9          -6.0950    -0.6380    -1.4390 ca         1 BEE      -0.124000
     10 C10         -6.2200     0.6520    -0.9250 ca         1 BEE      -0.006000
     11 C11         -5.3010     1.0640     0.0440 ca         1 BEE      -0.124000
     12 C12         -4.2980     0.2190     0.4840 ca         1 BEE      -0.108250
     13 O14         -1.8510    -1.3730     0.2430 os         1 BEE      -0.380600
     14 C15         -0.8240    -1.7710     1.0910 c3         1 BEE       0.051100
     15 C16          0.2890    -0.6960     1.0630 c3         1 BEE       0.123100
     16 C17         -0.2920     0.7250     1.0540 c3         1 BEE       0.123100
     17 C18          0.8220     1.7990     1.0070 c3         1 BEE       0.051100
     18 C19          0.2490     3.1460     0.5310 c          1 BEE       0.637100
     19 O20          0.5650     3.6110    -0.5520 o          1 BEE      -0.591600
     20 N21         -0.5960     3.7420     1.3840 ns         1 BEE      -0.552900
     21 C22         -1.2470     5.0010     1.1320 c3         1 BEE       0.033700
     22 C23         -2.7170     4.8410     0.6800 c3         1 BEE      -0.067700
     23 C24         -2.8020     4.0690    -0.6310 c3         1 BEE      -0.092600
     24 C25         -3.5900     4.1850     1.7450 c3         1 BEE      -0.092600
     25 C26         -1.1600     5.8540     2.3960 c          1 BEE       0.654100
     26 O27         -0.9450     5.3650     3.4970 o          1 BEE      -0.611100
     27 N28         -1.3740     7.1600     2.2080 ns         1 BEE      -0.570900
     28 C29         -1.3810     8.1120     3.2950 c3         1 BEE       0.094300
     29 O30          1.8190     1.3730     0.1360 os         1 BEE      -0.380600
     30 C31          3.0770     1.9970     0.2970 c3         1 BEE       0.188700
     31 O32         -1.1440     0.9570     2.1530 oh         1 BEE      -0.594300
     32 O33          1.1860    -0.8960     2.1310 oh         1 BEE      -0.594300
     33 N36          0.5910    -3.7120     1.4870 ns         1 BEE      -0.552900
     34 C37          1.2390    -4.9740     1.2460 c3         1 BEE       0.033700
     35 C38          2.7010    -4.8200     0.7700 c3         1 BEE      -0.067700
     36 C39          2.7640    -4.0770    -0.5590 c3         1 BEE      -0.092600
     37 C40          3.5870    -4.1380     1.8070 c3         1 BEE      -0.092600
     38 C41          1.1700    -5.8090     2.5240 c          1 BEE       0.654100
     39 O42          0.9800    -5.3040     3.6220 o          1 BEE      -0.611100
     40 N43          1.3670    -7.1190     2.3490 ns         1 BEE      -0.570900
     41 C44          1.3910    -8.0570     3.4470 c3         1 BEE       0.094300
     42 S45          9.4410    -2.5550    -2.3720 ss         1 BEE      -0.081800
     43 C46          8.2590    -3.6770    -1.8440 cc         1 BEE      -0.122100
     44 C47          7.1450    -3.0480    -1.3870 cd         1 BEE      -0.137000
     45 C48          7.2340    -1.6220    -1.4640 cd         1 BEE      -0.054500
     46 C49          8.4370    -1.2270    -1.9840 cc         1 BEE      -0.112100
     47 S50         -9.5050     2.4530    -2.2920 ss         1 BEE      -0.081800
     48 C51         -8.4990     1.1410    -1.8580 cc         1 BEE      -0.112100
     49 C52         -7.2860     1.5560    -1.3800 cd         1 BEE      -0.054500
     50 C53         -7.1910     2.9830    -1.3710 cd         1 BEE      -0.137000
     51 C54         -8.3110     3.5940    -1.8370 cc         1 BEE      -0.122100
     52 H2           4.9500     2.4050    -1.6410 ha         1 BEE       0.138750
     53 H3           6.7000     0.8750    -2.3990 ha         1 BEE       0.131500
     54 H5           5.3600    -2.0390     0.4440 ha         1 BEE       0.131500
     55 H6           3.5910    -0.5240     1.1670 ha         1 BEE       0.138750
     56 H8          -5.0130    -2.4820    -1.4120 ha         1 BEE       0.138750
     57 H9          -6.7720    -0.9820    -2.2100 ha         1 BEE       0.131500
     58 H11         -5.3810     2.0530     0.4770 ha         1 BEE       0.131500
     59 H12         -3.6030     0.5670     1.2380 ha         1 BEE       0.138750
     60 H131        -3.1670    -2.9580    -0.0290 h1         1 BEE       0.041950
     61 H132        -3.2410    -2.1660     1.5470 h1         1 BEE       0.041950
     62 H15         -1.1920    -1.8650     2.1260 h1         1 BEE       0.045700
     63 H16          0.8800    -0.8210     0.1530 h1         1 BEE       0.125200
     64 H17         -0.9190     0.8260     0.1670 h1         1 BEE       0.125200
     65 H18          1.2250     1.9250     2.0250 h1         1 BEE       0.045700
     66 H21         -0.8020     3.2880     2.2600 hn         1 BEE       0.335500
     67 H22         -0.7020     5.5040     0.3300 h1         1 BEE       0.087700
     68 H23         -3.0960     5.8510     0.4980 hc         1 BEE       0.042700
     69 H241        -3.8310     4.0530    -0.9930 hc         1 BEE       0.041783
     70 H242        -2.1840     4.5180    -1.4090 hc         1 BEE       0.041783
     71 H243        -2.4860     3.0320    -0.5040 hc         1 BEE       0.041783
     72 H251        -3.6000     4.7400     2.6830 hc         1 BEE       0.041783
     73 H252        -4.6230     4.1300     1.3990 hc         1 BEE       0.041783
     74 H253        -3.2590     3.1660     1.9560 hc         1 BEE       0.041783
     75 H28         -1.5010     7.5080     1.2730 hn         1 BEE       0.318500
     76 H291        -1.5750     9.0980     2.8840 h1         1 BEE       0.041700
     77 H292        -2.1590     7.8840     4.0240 h1         1 BEE       0.041700
     78 H293        -0.4220     8.1380     3.8140 h1         1 BEE       0.041700
     79 H311         3.1260     2.9390    -0.2580 h1         1 BEE       0.041950
     80 H312         3.2450     2.2350     1.3560 h1         1 BEE       0.041950
     81 H32         -0.6380     0.9360     2.9740 ho         1 BEE       0.396500
     82 H33          0.7180    -0.8360     2.9710 ho         1 BEE       0.396500
     83 H36          0.8070    -3.2440     2.3530 hn         1 BEE       0.335500
     84 H37          0.6830    -5.4900     0.4600 h1         1 BEE       0.087700
     85 H38          3.0820    -5.8340     0.6050 hc         1 BEE       0.042700
     86 H391         2.4500    -3.0380    -0.4490 hc         1 BEE       0.041783
     87 H392         3.7880    -4.0680    -0.9380 hc         1 BEE       0.041783
     88 H393         2.1340    -4.5420    -1.3170 hc         1 BEE       0.041783
     89 H401         3.6090    -4.6690     2.7590 hc         1 BEE       0.041783
     90 H402         4.6160    -4.0900     1.4480 hc         1 BEE       0.041783
     91 H403         3.2560    -3.1140     1.9960 hc         1 BEE       0.041783
     92 H43          1.4870    -7.4780     1.4160 hn         1 BEE       0.318500
     93 H441         2.2120    -7.8540     4.1340 h1         1 BEE       0.041700
     94 H442         0.4580    -8.0370     4.0110 h1         1 BEE       0.041700
     95 H443         1.5250    -9.0560     3.0410 h1         1 BEE       0.041700
     96 H46          8.4430    -4.7380    -1.9060 h4         1 BEE       0.167000
     97 H47          6.2780    -3.5840    -1.0280 ha         1 BEE       0.152000
     98 H49          8.7920    -0.2190    -2.1380 h4         1 BEE       0.169000
     99 H53         -6.3150     3.5320    -1.0530 ha         1 BEE       0.152000
    100 H54         -8.4920     4.6520    -1.9450 h4         1 BEE       0.167000
    101 C34         -0.2660    -3.1300     0.6350 c          1 BEE       0.637100
    102 O35         -0.5980    -3.6140    -0.4340 o          1 BEE      -0.591600
    103 C13         -3.1030    -1.9870     0.4720 c3         1 BEE       0.188700
    104 H51         -8.8600     0.1290    -1.9570 h4         1 BEE       0.169000
@<TRIPOS>BOND
     1     1     2 ar  
     2     1     6 ar  
     3     1    30 1   
     4     2     3 ar  
     5     2    52 1   
     6     3     4 ar  
     7     3    53 1   
     8     4     5 ar  
     9     4    45 1   
    10     5     6 ar  
    11     5    54 1   
    12     6    55 1   
    13     7     8 ar  
    14     7    12 ar  
    15     7   103 1   
    16     8     9 ar  
    17     8    56 1   
    18     9    10 ar  
    19     9    57 1   
    20    10    11 ar  
    21    10    49 1   
    22    11    12 ar  
    23    11    58 1   
    24    12    59 1   
    25    13    14 1   
    26    13   103 1   
    27    14    15 1   
    28    14    62 1   
    29    14   101 1   
    30    15    16 1   
    31    15    32 1   
    32    15    63 1   
    33    16    17 1   
    34    16    31 1   
    35    16    64 1   
    36    17    18 1   
    37    17    29 1   
    38    17    65 1   
    39    18    19 2   
    40    18    20 1   
    41    20    21 1   
    42    20    66 1   
    43    21    22 1   
    44    21    25 1   
    45    21    67 1   
    46    22    23 1   
    47    22    24 1   
    48    22    68 1   
    49    23    69 1   
    50    23    70 1   
    51    23    71 1   
    52    24    72 1   
    53    24    73 1   
    54    24    74 1   
    55    25    26 2   
    56    25    27 1   
    57    27    28 1   
    58    27    75 1   
    59    28    76 1   
    60    28    77 1   
    61    28    78 1   
    62    29    30 1   
    63    30    79 1   
    64    30    80 1   
    65    31    81 1   
    66    32    82 1   
    67    33    34 1   
    68    33    83 1   
    69    33   101 1   
    70    34    35 1   
    71    34    38 1   
    72    34    84 1   
    73    35    36 1   
    74    35    37 1   
    75    35    85 1   
    76    36    86 1   
    77    36    87 1   
    78    36    88 1   
    79    37    89 1   
    80    37    90 1   
    81    37    91 1   
    82    38    39 2   
    83    38    40 1   
    84    40    41 1   
    85    40    92 1   
    86    41    93 1   
    87    41    94 1   
    88    41    95 1   
    89    42    43 1   
    90    42    46 1   
    91    43    44 2   
    92    43    96 1   
    93    44    45 1   
    94    44    97 1   
    95    45    46 2   
    96    46    98 1   
    97    47    48 1   
    98    47    51 1   
    99    48    49 2   
   100    48   104 1   
   101    49    50 1   
   102    50    51 2   
   103    50    99 1   
   104    51   100 1   
   105    60   103 1   
   106    61   103 1   
   107   101   102 2   
@<TRIPOS>SUBSTRUCTURE
     1 BEE         1 TEMP              0 ****  ****    0 ROOT
