@<TRIPOS>MOLECULE
BEE
  104   107     1     0     0
SMALL
No Charge or Current Charge


@<TRIPOS>ATOM
      1 C1           4.0980     0.5240    -0.0530 ca         1 BEE      -0.090800
      2 C2           3.7290     0.0360    -1.3190 ca         1 BEE      -0.090250
      3 C3           4.4650    -0.9930    -1.9300 ca         1 BEE      -0.106000
      4 C4           5.5920    -1.5600    -1.2920 ca         1 BEE      -0.006000
      5 C5           5.9650    -1.0480    -0.0280 ca         1 BEE      -0.106000
      6 C6           5.2250    -0.0220     0.5860 ca         1 BEE      -0.090250
      7 C7          -4.1290    -0.5380     0.0400 ca         1 BEE      -0.090800
      8 C8          -3.7840    -0.0880    -1.2470 ca         1 BEE      -0.090250
      9 C9          -4.5310     0.9240    -1.8730 ca         1 BEE      -0.106000
     10 C10         -5.6450     1.5110    -1.2310 ca         1 BEE      -0.006000
     11 C11         -5.9940     1.0370     0.0550 ca         1 BEE      -0.106000
     12 C12         -5.2430     0.0280     0.6840 ca         1 BEE      -0.090250
     13 O14         -1.9230    -1.1150     0.7450 os         1 BEE      -0.427000
     14 C15         -1.0080    -1.7290     1.6910 c3         1 BEE       0.074300
     15 C16          0.1930    -0.7450     1.8930 c3         1 BEE       0.146300
     16 C17         -0.1880     0.7860     1.8740 c3         1 BEE       0.146300
     17 C18          1.0090     1.7630     1.6210 c3         1 BEE       0.074300
     18 C19          0.5130     3.1610     1.1150 c          1 BEE       0.570100
     19 O20          1.0560     3.7870     0.2120 o          1 BEE      -0.591600
     20 N21         -0.6370     3.6340     1.7150 ns         1 BEE      -0.485900
     21 C22         -1.3890     4.8450     1.3140 c3         1 BEE       0.033700
     22 C23         -2.6430     4.4780     0.4560 c3         1 BEE      -0.067700
     23 C24         -2.2700     3.7990    -0.8830 c3         1 BEE      -0.092600
     24 C25         -3.6790     3.6270     1.2320 c3         1 BEE      -0.092600
     25 C26         -1.7490     5.7040     2.5650 c          1 BEE       0.587100
     26 O27         -1.5850     5.3200     3.7180 o          1 BEE      -0.611100
     27 N28         -2.2700     6.9520     2.2930 ns         1 BEE      -0.503900
     28 C29         -2.6810     7.9160     3.3160 c3         1 BEE       0.094300
     29 O30          1.9060     1.1220     0.6760 os         1 BEE      -0.427000
     30 C31          3.2620     1.5980     0.6340 c3         1 BEE       0.211900
     31 O32         -0.8710     1.1450     3.1030 oh         1 BEE      -0.716500
     32 O33          0.8990    -1.0670     3.1190 oh         1 BEE      -0.716500
     33 N36          0.6400    -3.5960     1.8090 ns         1 BEE      -0.485900
     34 C37          1.3850    -4.8190     1.4290 c3         1 BEE       0.033700
     35 C38          2.6220    -4.4760     0.5370 c3         1 BEE      -0.067700
     36 C39          2.2230    -3.8380    -0.8140 c3         1 BEE      -0.092600
     37 C40          3.6720    -3.6020     1.2670 c3         1 BEE      -0.092600
     38 C41          1.7700    -5.6400     2.6980 c          1 BEE       0.587100
     39 O42          1.6270    -5.2220     3.8420 o          1 BEE      -0.611100
     40 N43          2.2860    -6.8960     2.4530 ns         1 BEE      -0.503900
     41 C44          2.7170    -7.8290     3.4960 c3         1 BEE       0.094300
     42 S45          7.1120    -4.5210    -3.6110 ss         1 BEE       0.208000
     43 C46          8.0130    -4.3280    -2.1210 cc         1 BEE      -0.249000
     44 C47          7.4850    -3.3220    -1.3550 cd         1 BEE      -0.119000
     45 C48          6.3470    -2.6710    -1.9270 cd         1 BEE      -0.054500
     46 C49          6.0260    -3.2160    -3.1530 cc         1 BEE      -0.239000
     47 S50         -7.2090     4.4040    -3.6060 ss         1 BEE       0.208000
     48 C51         -6.1150     3.1120    -3.1310 cc         1 BEE      -0.239000
     49 C52         -6.4120     2.6030    -1.8830 cd         1 BEE      -0.054500
     50 C53         -7.5380     3.2720    -1.3080 cd         1 BEE      -0.119000
     51 C54         -8.0810     4.2550    -2.0940 cc         1 BEE      -0.249000
     52 H2           2.8570     0.4450    -1.8240 ha         1 BEE       0.120750
     53 H3           4.1360    -1.3480    -2.9010 ha         1 BEE       0.113500
     54 H5           6.8220    -1.4460     0.5050 ha         1 BEE       0.113500
     55 H6           5.5250     0.3380     1.5670 ha         1 BEE       0.120750
     56 H8          -2.9220    -0.5120    -1.7570 ha         1 BEE       0.120750
     57 H9          -4.2210     1.2500    -2.8610 ha         1 BEE       0.113500
     58 H11         -6.8400     1.4510     0.5920 ha         1 BEE       0.113500
     59 H12         -5.5240    -0.3030     1.6820 ha         1 BEE       0.120750
     60 H131        -3.3640    -2.5480     0.2100 h1         1 BEE       0.041950
     61 H132        -3.6460    -1.7330     1.7670 h1         1 BEE       0.041950
     62 H15         -1.5060    -1.8600     2.6610 h1         1 BEE       0.045700
     63 H16          0.8500    -0.9270     1.0300 h1         1 BEE       0.125200
     64 H17         -0.8610     0.9430     1.0190 h1         1 BEE       0.125200
     65 H18          1.5250     1.9230     2.5770 h1         1 BEE       0.045700
     66 H21         -1.0330     3.0430     2.4430 hn         1 BEE       0.335500
     67 H22         -0.7340     5.4800     0.7020 h1         1 BEE       0.087700
     68 H23         -3.1420     5.4180     0.1920 hc         1 BEE       0.042700
     69 H241        -3.1600     3.6760    -1.5130 hc         1 BEE       0.041783
     70 H242        -1.5460     4.4070    -1.4390 hc         1 BEE       0.041783
     71 H243        -1.8330     2.8070    -0.7180 hc         1 BEE       0.041783
     72 H251        -3.9740     4.1140     2.1690 hc         1 BEE       0.041783
     73 H252        -4.5860     3.4930     0.6310 hc         1 BEE       0.041783
     74 H253        -3.2790     2.6330     1.4700 hc         1 BEE       0.041783
     75 H28         -2.3750     7.2060     1.3170 hn         1 BEE       0.318500
     76 H291        -3.0610     8.8250     2.8320 h1         1 BEE       0.041700
     77 H292        -3.4720     7.4800     3.9390 h1         1 BEE       0.041700
     78 H293        -1.8200     8.1750     3.9470 h1         1 BEE       0.041700
     79 H311         3.3370     2.5380     0.0740 h1         1 BEE       0.041950
     80 H312         3.6470     1.7690     1.6480 h1         1 BEE       0.041950
     81 H32         -0.2070     1.1220     3.8290 ho         1 BEE       0.495500
     82 H33          0.2480    -1.0240     3.8560 ho         1 BEE       0.495500
     83 H36          1.0490    -2.9830     2.5110 hn         1 BEE       0.335500
     84 H37          0.7190    -5.4710     0.8490 h1         1 BEE       0.087700
     85 H38          3.1170    -5.4240     0.2910 hc         1 BEE       0.042700
     86 H391         1.7890    -2.8410    -0.6700 hc         1 BEE       0.041783
     87 H392         3.1000    -3.7330    -1.4640 hc         1 BEE       0.041783
     88 H393         1.4880    -4.4620    -1.3380 hc         1 BEE       0.041783
     89 H401         3.9850    -4.0610     2.2120 hc         1 BEE       0.041783
     90 H402         4.5670    -3.4860     0.6460 hc         1 BEE       0.041783
     91 H403         3.2760    -2.6020     1.4830 hc         1 BEE       0.041783
     92 H43          2.3720    -7.1780     1.4830 hn         1 BEE       0.318500
     93 H441         3.5190    -7.3740     4.0900 h1         1 BEE       0.041700
     94 H442         1.8690    -8.0700     4.1500 h1         1 BEE       0.041700
     95 H443         3.0880    -8.7520     3.0320 h1         1 BEE       0.041700
     96 H46          8.8620    -4.9700    -1.9220 h4         1 BEE       0.149000
     97 H47          7.9140    -3.0620    -0.3930 ha         1 BEE       0.134000
     98 H49          5.2300    -2.9590    -3.8360 h4         1 BEE       0.151000
     99 H53         -7.9480     3.0400    -0.3320 ha         1 BEE       0.134000
    100 H54         -8.9250     4.9030    -1.8970 h4         1 BEE       0.149000
    101 C34         -0.5210    -3.1410     1.2170 c          1 BEE       0.570100
    102 O35         -1.0810    -3.7930     0.3430 o          1 BEE      -0.591600
    103 C13         -3.2800    -1.5920     0.7420 c3         1 BEE       0.211900
    104 H51         -5.3320     2.8330    -3.8210 h4         1 BEE       0.151000
@<TRIPOS>BOND
     1     1     2 ar  
     2     1     6 ar  
     3     1    30 1   
     4     2     3 ar  
     5     2    52 1   
     6     3     4 ar  
     7     3    53 1   
     8     4     5 ar  
     9     4    45 1   
    10     5     6 ar  
    11     5    54 1   
    12     6    55 1   
    13     7     8 ar  
    14     7    12 ar  
    15     7   103 1   
    16     8     9 ar  
    17     8    56 1   
    18     9    10 ar  
    19     9    57 1   
    20    10    11 ar  
    21    10    49 1   
    22    11    12 ar  
    23    11    58 1   
    24    12    59 1   
    25    13    14 1   
    26    13   103 1   
    27    14    15 1   
    28    14    62 1   
    29    14   101 1   
    30    15    16 1   
    31    15    32 1   
    32    15    63 1   
    33    16    17 1   
    34    16    31 1   
    35    16    64 1   
    36    17    18 1   
    37    17    29 1   
    38    17    65 1   
    39    18    19 2   
    40    18    20 1   
    41    20    21 1   
    42    20    66 1   
    43    21    22 1   
    44    21    25 1   
    45    21    67 1   
    46    22    23 1   
    47    22    24 1   
    48    22    68 1   
    49    23    69 1   
    50    23    70 1   
    51    23    71 1   
    52    24    72 1   
    53    24    73 1   
    54    24    74 1   
    55    25    26 2   
    56    25    27 1   
    57    27    28 1   
    58    27    75 1   
    59    28    76 1   
    60    28    77 1   
    61    28    78 1   
    62    29    30 1   
    63    30    79 1   
    64    30    80 1   
    65    31    81 1   
    66    32    82 1   
    67    33    34 1   
    68    33    83 1   
    69    33   101 1   
    70    34    35 1   
    71    34    38 1   
    72    34    84 1   
    73    35    36 1   
    74    35    37 1   
    75    35    85 1   
    76    36    86 1   
    77    36    87 1   
    78    36    88 1   
    79    37    89 1   
    80    37    90 1   
    81    37    91 1   
    82    38    39 2   
    83    38    40 1   
    84    40    41 1   
    85    40    92 1   
    86    41    93 1   
    87    41    94 1   
    88    41    95 1   
    89    42    43 1   
    90    42    46 1   
    91    43    44 2   
    92    43    96 1   
    93    44    45 1   
    94    44    97 1   
    95    45    46 2   
    96    46    98 1   
    97    47    48 1   
    98    47    51 1   
    99    48    49 2   
   100    48   104 1   
   101    49    50 1   
   102    50    51 2   
   103    50    99 1   
   104    51   100 1   
   105    60   103 1   
   106    61   103 1   
   107   101   102 2   
@<TRIPOS>SUBSTRUCTURE
     1 BEE         1 TEMP              0 ****  ****    0 ROOT
