@<TRIPOS>MOLECULE
BEG
   87    92     1     0     0
SMALL
No Charge or Current Charge


@<TRIPOS>ATOM
      1 C01         -0.2770    -4.1390     2.2190 ca         1 BEG      -0.089300
      2 C02         -1.0620    -4.3630     3.3680 ca         1 BEG      -0.091500
      3 C03         -0.4840    -4.9170     4.5230 ca         1 BEG      -0.112500
      4 C04          0.8810    -5.2500     4.5370 ca         1 BEG      -0.103000
      5 C05          1.6690    -5.0260     3.3950 ca         1 BEG      -0.112500
      6 C06          1.0920    -4.4720     2.2390 ca         1 BEG      -0.091500
      7 C07          0.1050     3.7520     3.2940 ca         1 BEG      -0.094300
      8 C08          0.8190     3.6600     4.5050 ca         1 BEG      -0.090500
      9 C09          0.1700     3.8960     5.7300 ca         1 BEG      -0.114500
     10 C10         -1.1960     4.2240     5.7510 ca         1 BEG      -0.106000
     11 C11         -1.9140     4.3140     4.5460 ca         1 BEG      -0.114500
     12 C12         -1.2660     4.0780     3.3210 ca         1 BEG      -0.090500
     13 O14          0.6800     2.0990     1.6490 os         1 BEG      -0.422000
     14 C23         -0.9020    -3.5390     0.9670 c3         1 BEG       0.204900
     15 O22         -0.7180    -2.1130     1.0080 os         1 BEG      -0.424000
     16 C15          1.2670     1.6950     0.3870 c3         1 BEG       0.108300
     17 C17         -0.7460     0.0910    -0.0170 c3         1 BEG       0.178300
     18 O24         -1.1830     0.8420    -1.1670 oh         1 BEG      -0.710000
     19 C18         -1.2140    -1.3880    -0.1480 c3         1 BEG       0.062300
     20 C19         -2.7650    -1.4560    -0.2480 c          1 BEG       0.574100
     21 O20         -3.5020    -1.3230     0.7240 o          1 BEG      -0.577100
     22 N21         -3.2480    -1.7630    -1.5050 ns         1 BEG      -0.485900
     23 C25          2.8260     1.7680     0.3980 c          1 BEG       0.560100
     24 O26          3.5000     1.6670     1.4180 o          1 BEG      -0.578100
     25 N27          3.3900     2.0220    -0.8370 ns         1 BEG      -0.494900
     26 C28          4.8500     2.1220    -0.9510 c5         1 BEG       0.159000
     27 C29          5.5440     0.8510    -1.3770 ca         1 BEG      -0.106300
     28 C30          6.4250     1.0640    -2.4180 ca         1 BEG      -0.079300
     29 C31          5.3830    -0.4300    -0.8200 ca         1 BEG      -0.083000
     30 C32          6.1310    -1.5010    -1.3460 ca         1 BEG      -0.114000
     31 C33          7.0290    -1.2820    -2.4120 ca         1 BEG      -0.107000
     32 C34          5.1160     3.0550    -2.2260 c5         1 BEG       0.156300
     33 O35          4.0570     3.0180    -3.2030 oh         1 BEG      -0.663000
     34 C36          7.1820     0.0100    -2.9530 ca         1 BEG      -0.095000
     35 C37          6.4590     2.5070    -2.8520 c5         1 BEG      -0.068100
     36 C38         -4.6960    -1.8900    -1.7040 c5         1 BEG       0.160000
     37 C39         -5.3730    -0.6620    -2.2600 ca         1 BEG      -0.107300
     38 C40         -6.1910    -0.9600    -3.3310 ca         1 BEG      -0.080300
     39 C41         -5.2510     0.6580    -1.7910 ca         1 BEG      -0.081000
     40 C42         -5.9770     1.6790    -2.4340 ca         1 BEG      -0.113000
     41 C43         -6.8130     1.3730    -3.5290 ca         1 BEG      -0.107000
     42 C44         -4.8750    -2.9130    -2.9240 c5         1 BEG       0.152300
     43 O45         -3.7610    -2.9250    -3.8390 oh         1 BEG      -0.661000
     44 C46         -6.9250     0.0440    -3.9820 ca         1 BEG      -0.097000
     45 C47         -6.1860    -2.4310    -3.6610 c5         1 BEG      -0.068100
     46 H021        -2.1190    -4.1050     3.3650 ha         1 BEG       0.112000
     47 H031        -1.0940    -5.0880     5.4080 ha         1 BEG       0.113500
     48 H041         1.3280    -5.6780     5.4320 ha         1 BEG       0.113000
     49 H051         2.7270    -5.2810     3.4060 ha         1 BEG       0.113500
     50 H061         1.7080    -4.2990     1.3600 ha         1 BEG       0.112000
     51 H081         1.8760     3.4030     4.4970 ha         1 BEG       0.118500
     52 H091         0.7260     3.8240     6.6620 ha         1 BEG       0.111500
     53 H101        -1.6980     4.4070     6.6990 ha         1 BEG       0.110000
     54 H111        -2.9720     4.5660     4.5610 ha         1 BEG       0.111500
     55 H121        -1.8290     4.1470     2.3920 ha         1 BEG       0.118500
     56 H131         1.8620     3.7880     2.0510 h1         1 BEG       0.038200
     57 H132         0.3470     4.1150     1.1850 h1         1 BEG       0.038200
     58 H231        -1.9680    -3.7980     0.9290 h1         1 BEG       0.036200
     59 H232        -0.4190    -3.9660     0.0780 h1         1 BEG       0.036200
     60 H151         0.9070     2.3420    -0.4240 h1         1 BEG       0.041700
     61 H161         1.1500    -0.3830     0.9510 hc         1 BEG       0.066700
     62 H162         1.2800    -0.1400    -0.7810 hc         1 BEG       0.066700
     63 H171        -1.2120     0.4940     0.8950 h1         1 BEG       0.128700
     64 H241        -0.6430     0.5540    -1.9370 ho         1 BEG       0.492000
     65 H181        -0.7850    -1.8130    -1.0650 h1         1 BEG       0.028700
     66 H211        -2.5870    -1.9070    -2.2590 hn         1 BEG       0.323500
     67 H271         2.7800     2.1430    -1.6380 hn         1 BEG       0.325500
     68 H281         5.3330     2.5430    -0.0580 h1         1 BEG       0.096700
     69 H311         4.6930    -0.5940     0.0050 ha         1 BEG       0.118000
     70 H321         6.0170    -2.4990    -0.9280 ha         1 BEG       0.114000
     71 H331         7.6070    -2.1110    -2.8140 ha         1 BEG       0.113000
     72 H341         5.2510     4.0950    -1.8970 h1         1 BEG       0.049700
     73 H351         4.3360     3.5960    -3.9470 ho         1 BEG       0.447000
     74 H361         7.8760     0.1870    -3.7710 ha         1 BEG       0.114000
     75 H371         6.5020     2.6270    -3.9400 hc         1 BEG       0.060200
     76 H372         7.3300     3.0230    -2.4320 hc         1 BEG       0.060200
     77 H381        -5.2330    -2.2550    -0.8160 h1         1 BEG       0.099700
     78 H411        -4.6070     0.8880    -0.9450 ha         1 BEG       0.130000
     79 H421        -5.8930     2.7060    -2.0860 ha         1 BEG       0.113000
     80 H431        -7.3730     2.1640    -4.0230 ha         1 BEG       0.112000
     81 H441        -5.0160    -3.9310    -2.5320 h1         1 BEG       0.048700
     82 H451        -3.9910    -3.5530    -4.5580 ho         1 BEG       0.445000
     83 H461        -7.5700    -0.2000    -4.8240 ha         1 BEG       0.113000
     84 H471        -6.1670    -2.6290    -4.7390 hc         1 BEG       0.059700
     85 H472        -7.0740    -2.9280    -3.2540 hc         1 BEG       0.059700
     86 C16          0.7930     0.2430     0.1240 c3         1 BEG      -0.105400
     87 C13          0.8070     3.4960     1.9670 c3         1 BEG       0.208900
@<TRIPOS>BOND
     1     1     2 ar  
     2     1     6 ar  
     3     1    14 1   
     4     2     3 ar  
     5     2    46 1   
     6     3     4 ar  
     7     3    47 1   
     8     4     5 ar  
     9     4    48 1   
    10     5     6 ar  
    11     5    49 1   
    12     6    50 1   
    13     7     8 ar  
    14     7    12 ar  
    15     7    87 1   
    16     8     9 ar  
    17     8    51 1   
    18     9    10 ar  
    19     9    52 1   
    20    10    11 ar  
    21    10    53 1   
    22    11    12 ar  
    23    11    54 1   
    24    12    55 1   
    25    13    16 1   
    26    13    87 1   
    27    14    15 1   
    28    14    58 1   
    29    14    59 1   
    30    15    19 1   
    31    16    23 1   
    32    16    60 1   
    33    16    86 1   
    34    17    18 1   
    35    17    19 1   
    36    17    63 1   
    37    17    86 1   
    38    18    64 1   
    39    19    20 1   
    40    19    65 1   
    41    20    21 2   
    42    20    22 1   
    43    22    36 1   
    44    22    66 1   
    45    23    24 2   
    46    23    25 1   
    47    25    26 1   
    48    25    67 1   
    49    26    27 1   
    50    26    32 1   
    51    26    68 1   
    52    27    28 ar  
    53    27    29 ar  
    54    28    34 ar  
    55    28    35 1   
    56    29    30 ar  
    57    29    69 1   
    58    30    31 ar  
    59    30    70 1   
    60    31    34 ar  
    61    31    71 1   
    62    32    33 1   
    63    32    35 1   
    64    32    72 1   
    65    33    73 1   
    66    34    74 1   
    67    35    75 1   
    68    35    76 1   
    69    36    37 1   
    70    36    42 1   
    71    36    77 1   
    72    37    38 ar  
    73    37    39 ar  
    74    38    44 ar  
    75    38    45 1   
    76    39    40 ar  
    77    39    78 1   
    78    40    41 ar  
    79    40    79 1   
    80    41    44 ar  
    81    41    80 1   
    82    42    43 1   
    83    42    45 1   
    84    42    81 1   
    85    43    82 1   
    86    44    83 1   
    87    45    84 1   
    88    45    85 1   
    89    56    87 1   
    90    57    87 1   
    91    61    86 1   
    92    62    86 1   
@<TRIPOS>SUBSTRUCTURE
     1 BEG         1 TEMP              0 ****  ****    0 ROOT
