@<TRIPOS>MOLECULE
BEG
   87    92     1     0     0
SMALL
bcc


@<TRIPOS>ATOM
      1 C01          0.6320    -4.1340     1.2800 ca         1 BEG      -0.089300
      2 C02          0.4050    -5.3300     1.9500 ca         1 BEG      -0.109500
      3 C03          1.4520    -6.0160     2.5540 ca         1 BEG      -0.130500
      4 C04          2.7400    -5.5030     2.5020 ca         1 BEG      -0.121000
      5 C05          2.9750    -4.3030     1.8410 ca         1 BEG      -0.130500
      6 C06          1.9290    -3.6250     1.2340 ca         1 BEG      -0.109500
      7 C07         -0.4770     4.0800     2.8780 ca         1 BEG      -0.094300
      8 C08         -0.3470     4.8030     4.0570 ca         1 BEG      -0.108500
      9 C09         -1.4700     5.1890     4.7800 ca         1 BEG      -0.132500
     10 C10         -2.7360     4.8450     4.3310 ca         1 BEG      -0.124000
     11 C11         -2.8740     4.1160     3.1540 ca         1 BEG      -0.132500
     12 C12         -1.7530     3.7350     2.4330 ca         1 BEG      -0.108500
     13 O14          0.6910     2.2910     1.8500 os         1 BEG      -0.375600
     14 C23         -0.4890    -3.4130     0.5890 c3         1 BEG       0.181700
     15 O22         -0.4550    -2.0520     0.9590 os         1 BEG      -0.377600
     16 C15          1.2710     1.8580     0.6600 c3         1 BEG       0.085100
     17 C17         -0.6940     0.2500     0.4370 c3         1 BEG       0.155100
     18 O24         -1.3670     1.1620    -0.3970 oh         1 BEG      -0.587800
     19 C18         -1.0910    -1.1870     0.0660 c3         1 BEG       0.039100
     20 C19         -2.6130    -1.3190     0.1710 c          1 BEG       0.641100
     21 O20         -3.1620    -1.3050     1.2610 o          1 BEG      -0.577100
     22 N21         -3.2540    -1.4280    -1.0020 ns         1 BEG      -0.552900
     23 C25          2.8000     1.8710     0.7500 c          1 BEG       0.627100
     24 O26          3.3800     1.8780     1.8230 o          1 BEG      -0.578100
     25 N27          3.4180     1.8210    -0.4430 ns         1 BEG      -0.561900
     26 C28          4.8280     1.6020    -0.6060 c5         1 BEG       0.159000
     27 C29          5.2170     0.1890    -0.9720 ca         1 BEG      -0.106300
     28 C30          6.3270     0.2120    -1.8090 ca         1 BEG      -0.079300
     29 C31          4.6430    -1.0060    -0.5800 ca         1 BEG      -0.101000
     30 C32          5.1990    -2.1970    -1.0370 ca         1 BEG      -0.132000
     31 C33          6.3140    -2.1790    -1.8680 ca         1 BEG      -0.125000
     32 C34          5.4600     2.4280    -1.7420 c5         1 BEG       0.133100
     33 O35          4.5420     2.4210    -2.8100 oh         1 BEG      -0.600800
     34 C36          6.8850    -0.9720    -2.2620 ca         1 BEG      -0.113000
     35 C37          6.7320     1.6350    -2.0800 c5         1 BEG      -0.068100
     36 C38         -4.6840    -1.4400    -1.1370 c5         1 BEG       0.160000
     37 C39         -5.2630    -0.2500    -1.8600 ca         1 BEG      -0.107300
     38 C40         -6.3940    -0.6420    -2.5670 ca         1 BEG      -0.080300
     39 C41         -4.8300     1.0640    -1.8650 ca         1 BEG      -0.099000
     40 C42         -5.5580     1.9990    -2.5970 ca         1 BEG      -0.131000
     41 C43         -6.6930     1.6150    -3.3010 ca         1 BEG      -0.125000
     42 C44         -5.2400    -2.6270    -1.9450 c5         1 BEG       0.129100
     43 O45         -4.3770    -2.8230    -3.0400 oh         1 BEG      -0.598800
     44 C46         -7.1190     0.2890    -3.2920 ca         1 BEG      -0.115000
     45 C47         -6.6200    -2.1190    -2.3910 c5         1 BEG      -0.068100
     46 H021        -0.6010    -5.7310     2.0060 ha         1 BEG       0.130000
     47 H031         1.2580    -6.9460     3.0720 ha         1 BEG       0.131500
     48 H041         3.5570    -6.0320     2.9760 ha         1 BEG       0.131000
     49 H051         3.9770    -3.8950     1.8000 ha         1 BEG       0.131500
     50 H061         2.1240    -2.6930     0.7180 ha         1 BEG       0.130000
     51 H081         0.6400     5.0650     4.4190 ha         1 BEG       0.136500
     52 H091        -1.3530     5.7530     5.6970 ha         1 BEG       0.129500
     53 H101        -3.6130     5.1390     4.8930 ha         1 BEG       0.128000
     54 H111        -3.8600     3.8460     2.7970 ha         1 BEG       0.129500
     55 H121        -1.8690     3.1670     1.5180 ha         1 BEG       0.136500
     56 H131         1.6480     3.9720     2.6000 h1         1 BEG       0.038200
     57 H132         0.7240     4.2260     1.1210 h1         1 BEG       0.038200
     58 H231        -1.4510    -3.8720     0.8480 h1         1 BEG       0.036200
     59 H232        -0.3690    -3.5120    -0.4990 h1         1 BEG       0.036200
     60 H151         0.9540     2.4940    -0.1800 h1         1 BEG       0.041700
     61 H161         1.2690    -0.2400     1.1490 hc         1 BEG       0.066700
     62 H162         1.2080     0.1020    -0.5730 hc         1 BEG       0.066700
     63 H171        -1.0560     0.4500     1.4480 h1         1 BEG       0.128700
     64 H241        -1.0380     1.0740    -1.2990 ho         1 BEG       0.393000
     65 H181        -0.7610    -1.3920    -0.9670 h1         1 BEG       0.028700
     66 H211        -2.7070    -1.4580    -1.8480 hn         1 BEG       0.323500
     67 H271         2.8560     1.8260    -1.2810 hn         1 BEG       0.325500
     68 H281         5.3200     1.8790     0.3310 h1         1 BEG       0.096700
     69 H311         3.7720    -1.0200     0.0670 ha         1 BEG       0.136000
     70 H321         4.7600    -3.1460    -0.7530 ha         1 BEG       0.132000
     71 H331         6.7360    -3.1120    -2.2180 ha         1 BEG       0.131000
     72 H341         5.6850     3.4480    -1.4150 h1         1 BEG       0.049700
     73 H351         4.8920     2.9680    -3.5200 ho         1 BEG       0.408000
     74 H361         7.7450    -0.9640    -2.9200 ha         1 BEG       0.132000
     75 H371         7.0770     1.8120    -3.1010 hc         1 BEG       0.060200
     76 H372         7.5470     1.9360    -1.4130 hc         1 BEG       0.060200
     77 H381        -5.1050    -1.4890    -0.1300 h1         1 BEG       0.099700
     78 H411        -3.9370     1.3580    -1.3270 ha         1 BEG       0.148000
     79 H421        -5.2340     3.0320    -2.6230 ha         1 BEG       0.131000
     80 H431        -7.2450     2.3510    -3.8720 ha         1 BEG       0.130000
     81 H441        -5.3130    -3.5290    -1.3280 h1         1 BEG       0.048700
     82 H451        -4.6920    -3.5800    -3.5420 ho         1 BEG       0.406000
     83 H461        -7.9990    -0.0050    -3.8510 ha         1 BEG       0.131000
     84 H471        -6.9830    -2.6230    -3.2890 hc         1 BEG       0.059700
     85 H472        -7.3580    -2.3020    -1.6030 hc         1 BEG       0.059700
     86 C16          0.8220     0.4200     0.4010 c3         1 BEG      -0.105400
     87 C13          0.7310     3.6830     2.0760 c3         1 BEG       0.185700
@<TRIPOS>BOND
     1     1     2 ar  
     2     1     6 ar  
     3     1    14 1   
     4     2     3 ar  
     5     2    46 1   
     6     3     4 ar  
     7     3    47 1   
     8     4     5 ar  
     9     4    48 1   
    10     5     6 ar  
    11     5    49 1   
    12     6    50 1   
    13     7     8 ar  
    14     7    12 ar  
    15     7    87 1   
    16     8     9 ar  
    17     8    51 1   
    18     9    10 ar  
    19     9    52 1   
    20    10    11 ar  
    21    10    53 1   
    22    11    12 ar  
    23    11    54 1   
    24    12    55 1   
    25    13    16 1   
    26    13    87 1   
    27    14    15 1   
    28    14    58 1   
    29    14    59 1   
    30    15    19 1   
    31    16    23 1   
    32    16    60 1   
    33    16    86 1   
    34    17    18 1   
    35    17    19 1   
    36    17    63 1   
    37    17    86 1   
    38    18    64 1   
    39    19    20 1   
    40    19    65 1   
    41    20    21 2   
    42    20    22 1   
    43    22    36 1   
    44    22    66 1   
    45    23    24 2   
    46    23    25 1   
    47    25    26 1   
    48    25    67 1   
    49    26    27 1   
    50    26    32 1   
    51    26    68 1   
    52    27    28 ar  
    53    27    29 ar  
    54    28    34 ar  
    55    28    35 1   
    56    29    30 ar  
    57    29    69 1   
    58    30    31 ar  
    59    30    70 1   
    60    31    34 ar  
    61    31    71 1   
    62    32    33 1   
    63    32    35 1   
    64    32    72 1   
    65    33    73 1   
    66    34    74 1   
    67    35    75 1   
    68    35    76 1   
    69    36    37 1   
    70    36    42 1   
    71    36    77 1   
    72    37    38 ar  
    73    37    39 ar  
    74    38    44 ar  
    75    38    45 1   
    76    39    40 ar  
    77    39    78 1   
    78    40    41 ar  
    79    40    79 1   
    80    41    44 ar  
    81    41    80 1   
    82    42    43 1   
    83    42    45 1   
    84    42    81 1   
    85    43    82 1   
    86    44    83 1   
    87    45    84 1   
    88    45    85 1   
    89    56    87 1   
    90    57    87 1   
    91    61    86 1   
    92    62    86 1   
@<TRIPOS>SUBSTRUCTURE
     1 BEG         1 TEMP              0 ****  ****    0 ROOT
