@<TRIPOS>MOLECULE
BEH
   83    87     1     0     0
SMALL
No Charge or Current Charge


@<TRIPOS>ATOM
      1 C01         -0.3270     0.3600     1.1970 c3         1 BEH       0.133300
      2 O02         -0.7770    -0.0580     2.5120 oh         1 BEH      -0.715000
      3 C03         -0.7160     1.8570     0.9570 c3         1 BEH       0.071300
      4 O04          0.1360     2.3830    -0.0970 os         1 BEH      -0.424000
      5 C05          0.3510     3.8050    -0.0850 c3         1 BEH       0.212900
      6 C06          1.4590     4.1220    -1.0800 ca         1 BEH      -0.092300
      7 C07          1.1880     4.8660    -2.2450 ca         1 BEH      -0.084500
      8 C08          2.2190     5.1530    -3.1580 ca         1 BEH      -0.117500
      9 C09          3.5250     4.6960    -2.9120 ca         1 BEH      -0.102000
     10 C10          3.8010     3.9520    -1.7530 ca         1 BEH      -0.117500
     11 C11          2.7710     3.6660    -0.8390 ca         1 BEH      -0.084500
     12 C12         -2.2380     2.0190     0.6200 c          1 BEH       0.571100
     13 O13         -2.6560     2.7980    -0.2310 o          1 BEH      -0.593100
     14 N14         -3.0880     1.1680     1.3000 ns         1 BEH      -0.491900
     15 C15         -4.5120     1.1350     0.9470 c5         1 BEH       0.162000
     16 C16         -4.8980     0.0450    -0.0230 ca         1 BEH      -0.106300
     17 C17         -4.2710    -0.2680    -1.2420 ca         1 BEH      -0.076000
     18 C18         -4.7870    -1.3190    -2.0250 ca         1 BEH      -0.113000
     19 C19         -5.9200    -2.0380    -1.5870 ca         1 BEH      -0.111000
     20 C20         -6.5360    -1.7100    -0.3640 ca         1 BEH      -0.097000
     21 C21         -6.0040    -0.6620     0.4050 ca         1 BEH      -0.081300
     22 C22         -6.5250    -0.1600     1.7280 c5         1 BEH      -0.067100
     23 C23         -5.2800     0.6510     2.2660 c5         1 BEH       0.156300
     24 O24         -4.4810    -0.1770     3.1320 oh         1 BEH      -0.657000
     25 C31          1.2030     0.0340     1.0200 c3         1 BEH       0.146300
     26 O32          1.9740     0.6730     2.0690 oh         1 BEH      -0.710000
     27 C33          1.5330    -1.4900     0.9710 c3         1 BEH       0.071300
     28 O34          0.5150    -2.1290     0.1570 os         1 BEH      -0.423000
     29 C35          0.4660    -3.5630     0.2210 c3         1 BEH       0.209900
     30 C36         -0.8410    -4.0110    -0.4200 ca         1 BEH      -0.092300
     31 C37         -0.8400    -4.7600    -1.6140 ca         1 BEH      -0.091000
     32 C38         -2.0550    -5.1590    -2.1990 ca         1 BEH      -0.114500
     33 C39         -3.2760    -4.8120    -1.5960 ca         1 BEH      -0.107000
     34 C40         -3.2820    -4.0660    -0.4060 ca         1 BEH      -0.114500
     35 C41         -2.0690    -3.6650     0.1790 ca         1 BEH      -0.091000
     36 C42          2.9580    -1.7060     0.3800 c          1 BEH       0.562100
     37 O43          3.1670    -1.9040    -0.8110 o          1 BEH      -0.561100
     38 N44          3.9830    -1.7350     1.3050 ns         1 BEH      -0.504900
     39 C45          5.4000    -1.8390     0.9630 c3         1 BEH       0.156300
     40 C46          5.9750    -0.4820     0.5800 ca         1 BEH      -0.100300
     41 C47          6.0920    -0.1130    -0.7750 ca         1 BEH      -0.098000
     42 C48          6.6100     1.1460    -1.1250 ca         1 BEH      -0.108000
     43 C49          7.0140     2.0440    -0.1240 ca         1 BEH      -0.108000
     44 C50          6.8990     1.6830     1.2290 ca         1 BEH      -0.108000
     45 C51          6.3810     0.4240     1.5800 ca         1 BEH      -0.098000
     46 H011        -0.8640    -0.2090     0.4240 h1         1 BEH       0.121700
     47 H021        -0.3850     0.5570     3.1730 ho         1 BEH       0.495000
     48 H031        -0.5330     2.4040     1.8910 h1         1 BEH       0.048700
     49 H051        -0.5650     4.3470    -0.3530 h1         1 BEH       0.035700
     50 H052         0.6650     4.1420     0.9120 h1         1 BEH       0.035700
     51 H071         0.1790     5.2220    -2.4450 ha         1 BEH       0.120500
     52 H081         2.0040     5.7280    -4.0560 ha         1 BEH       0.111500
     53 H091         4.3220     4.9180    -3.6190 ha         1 BEH       0.110000
     54 H101         4.8100     3.5970    -1.5620 ha         1 BEH       0.111500
     55 H111         2.9910     3.0860     0.0550 ha         1 BEH       0.120500
     56 H141        -2.6770     0.5310     1.9790 hn         1 BEH       0.345500
     57 H151        -4.9040     2.1050     0.6100 h1         1 BEH       0.092700
     58 H171        -3.4020     0.2920    -1.5790 ha         1 BEH       0.125000
     59 H181        -4.3120    -1.5770    -2.9690 ha         1 BEH       0.117000
     60 H191        -6.3170    -2.8480    -2.1950 ha         1 BEH       0.111000
     61 H201        -7.4090    -2.2600    -0.0210 ha         1 BEH       0.112000
     62 H221        -6.8320    -0.9670     2.4030 hc         1 BEH       0.058700
     63 H222        -7.3920     0.4940     1.5850 hc         1 BEH       0.058700
     64 H231        -5.6190     1.5260     2.8370 h1         1 BEH       0.045700
     65 H241        -5.0520    -0.4330     3.8890 ho         1 BEH       0.444000
     66 H311         1.5080     0.4310     0.0400 h1         1 BEH       0.134700
     67 H321         1.8130     0.1770     2.9010 ho         1 BEH       0.487000
     68 H331         1.5070    -1.8970     1.9900 h1         1 BEH       0.032700
     69 H351         1.3220    -4.0090    -0.3020 h1         1 BEH       0.036200
     70 H352         0.4840    -3.9080     1.2640 h1         1 BEH       0.036200
     71 H371         0.1000    -5.0310    -2.0890 ha         1 BEH       0.119000
     72 H381        -2.0500    -5.7360    -3.1220 ha         1 BEH       0.115500
     73 H391        -4.2160    -5.1190    -2.0500 ha         1 BEH       0.110000
     74 H401        -4.2260    -3.7930     0.0620 ha         1 BEH       0.115500
     75 H411        -2.0820    -3.0790     1.0960 ha         1 BEH       0.119000
     76 H441         3.7350    -1.5740     2.2740 hn         1 BEH       0.309500
     77 H451         5.9430    -2.2370     1.8300 h1         1 BEH       0.055200
     78 H452         5.5280    -2.5520     0.1360 h1         1 BEH       0.055200
     79 H471         5.7760    -0.8000    -1.5560 ha         1 BEH       0.115000
     80 H481         6.6960     1.4250    -2.1730 ha         1 BEH       0.110500
     81 H491         7.4140     3.0190    -0.3950 ha         1 BEH       0.111000
     82 H501         7.2090     2.3790     2.0060 ha         1 BEH       0.110500
     83 H511         6.2910     0.1540     2.6310 ha         1 BEH       0.115000
@<TRIPOS>BOND
     1     1     2 1   
     2     1     3 1   
     3     1    25 1   
     4     1    46 1   
     5     2    47 1   
     6     3     4 1   
     7     3    12 1   
     8     3    48 1   
     9     4     5 1   
    10     5     6 1   
    11     5    49 1   
    12     5    50 1   
    13     6     7 ar  
    14     6    11 ar  
    15     7     8 ar  
    16     7    51 1   
    17     8     9 ar  
    18     8    52 1   
    19     9    10 ar  
    20     9    53 1   
    21    10    11 ar  
    22    10    54 1   
    23    11    55 1   
    24    12    13 2   
    25    12    14 1   
    26    14    15 1   
    27    14    56 1   
    28    15    16 1   
    29    15    23 1   
    30    15    57 1   
    31    16    17 ar  
    32    16    21 ar  
    33    17    18 ar  
    34    17    58 1   
    35    18    19 ar  
    36    18    59 1   
    37    19    20 ar  
    38    19    60 1   
    39    20    21 ar  
    40    20    61 1   
    41    21    22 1   
    42    22    23 1   
    43    22    62 1   
    44    22    63 1   
    45    23    24 1   
    46    23    64 1   
    47    24    65 1   
    48    25    26 1   
    49    25    27 1   
    50    25    66 1   
    51    26    67 1   
    52    27    28 1   
    53    27    36 1   
    54    27    68 1   
    55    28    29 1   
    56    29    30 1   
    57    29    69 1   
    58    29    70 1   
    59    30    31 ar  
    60    30    35 ar  
    61    31    32 ar  
    62    31    71 1   
    63    32    33 ar  
    64    32    72 1   
    65    33    34 ar  
    66    33    73 1   
    67    34    35 ar  
    68    34    74 1   
    69    35    75 1   
    70    36    37 2   
    71    36    38 1   
    72    38    39 1   
    73    38    76 1   
    74    39    40 1   
    75    39    77 1   
    76    39    78 1   
    77    40    41 ar  
    78    40    45 ar  
    79    41    42 ar  
    80    41    79 1   
    81    42    43 ar  
    82    42    80 1   
    83    43    44 ar  
    84    43    81 1   
    85    44    45 ar  
    86    44    82 1   
    87    45    83 1   
@<TRIPOS>SUBSTRUCTURE
     1 BEH         1 TEMP              0 ****  ****    0 ROOT
