@<TRIPOS>MOLECULE
BEH
   83    87     1     0     0
SMALL
bcc


@<TRIPOS>ATOM
      1 C01         -0.2460     0.0970     0.8810 c3         1 BEH       0.110100
      2 O02         -0.8380    -0.5850     1.9670 oh         1 BEH      -0.592800
      3 C03         -0.5720     1.6060     0.9400 c3         1 BEH       0.048100
      4 O04          0.2280     2.2720     0.0140 os         1 BEH      -0.377600
      5 C05          0.7270     3.5190     0.4500 c3         1 BEH       0.189700
      6 C06          1.3810     4.1930    -0.7190 ca         1 BEH      -0.092300
      7 C07          0.6130     4.5810    -1.8150 ca         1 BEH      -0.102500
      8 C08          1.2050     5.2010    -2.9040 ca         1 BEH      -0.135500
      9 C09          2.5760     5.4380    -2.9130 ca         1 BEH      -0.120000
     10 C10          3.3490     5.0500    -1.8270 ca         1 BEH      -0.135500
     11 C11          2.7510     4.4260    -0.7380 ca         1 BEH      -0.102500
     12 C12         -2.0490     1.9150     0.6230 c          1 BEH       0.638100
     13 O13         -2.3440     2.8260    -0.1340 o          1 BEH      -0.593100
     14 N14         -2.9540     1.1430     1.2470 ns         1 BEH      -0.558900
     15 C15         -4.3670     1.2340     1.0130 c5         1 BEH       0.162000
     16 C16         -4.9300     0.2060     0.0600 ca         1 BEH      -0.106300
     17 C17         -4.3520    -0.3540    -1.0640 ca         1 BEH      -0.094000
     18 C18         -5.0870    -1.2780    -1.8020 ca         1 BEH      -0.131000
     19 C19         -6.3750    -1.6270    -1.4110 ca         1 BEH      -0.129000
     20 C20         -6.9490    -1.0610    -0.2750 ca         1 BEH      -0.115000
     21 C21         -6.2160    -0.1420     0.4580 ca         1 BEH      -0.081300
     22 C22         -6.5840     0.6080     1.7090 c5         1 BEH      -0.067100
     23 C23         -5.2160     1.0160     2.2780 c5         1 BEH       0.133100
     24 O24         -4.6180    -0.0360     2.9980 oh         1 BEH      -0.594800
     25 C31          1.2680    -0.1380     0.8000 c3         1 BEH       0.123100
     26 O32          1.9740     0.5320     1.8160 oh         1 BEH      -0.587800
     27 C33          1.6120    -1.6400     0.8110 c3         1 BEH       0.048100
     28 O34          0.7790    -2.2810    -0.1020 os         1 BEH      -0.376600
     29 C35          0.7150    -3.6840     0.0310 c3         1 BEH       0.186700
     30 C36         -0.5570    -4.1750    -0.6000 ca         1 BEH      -0.092300
     31 C37         -0.5390    -5.2460    -1.4870 ca         1 BEH      -0.109000
     32 C38         -1.7200    -5.7250    -2.0440 ca         1 BEH      -0.132500
     33 C39         -2.9300    -5.1290    -1.7220 ca         1 BEH      -0.125000
     34 C40         -2.9550    -4.0550    -0.8390 ca         1 BEH      -0.132500
     35 C41         -1.7770    -3.5810    -0.2820 ca         1 BEH      -0.109000
     36 C42          3.0790    -1.8130     0.4040 c          1 BEH       0.629100
     37 O43          3.4010    -1.8670    -0.7720 o          1 BEH      -0.561100
     38 N44          3.9610    -1.8760     1.4090 ns         1 BEH      -0.571900
     39 C45          5.3840    -1.9260     1.1780 c3         1 BEH       0.156300
     40 C46          5.9810    -0.6460     0.6380 ca         1 BEH      -0.100300
     41 C47          7.1910    -0.7030    -0.0480 ca         1 BEH      -0.116000
     42 C48          7.7970     0.4530    -0.5200 ca         1 BEH      -0.126000
     43 C49          7.1940     1.6880    -0.3160 ca         1 BEH      -0.126000
     44 C50          5.9840     1.7520     0.3620 ca         1 BEH      -0.126000
     45 C51          5.3820     0.5940     0.8390 ca         1 BEH      -0.116000
     46 H011        -0.6980    -0.3300    -0.0180 h1         1 BEH       0.121700
     47 H021        -0.5210    -0.2160     2.8000 ho         1 BEH       0.396000
     48 H031        -0.3730     1.9570     1.9650 h1         1 BEH       0.048700
     49 H051        -0.0840     4.1480     0.8350 h1         1 BEH       0.035700
     50 H052         1.4500     3.3790     1.2620 h1         1 BEH       0.035700
     51 H071        -0.4560     4.3980    -1.8090 ha         1 BEH       0.138500
     52 H081         0.5990     5.5040    -3.7490 ha         1 BEH       0.129500
     53 H091         3.0380     5.9230    -3.7630 ha         1 BEH       0.128000
     54 H101         4.4160     5.2280    -1.8280 ha         1 BEH       0.129500
     55 H111         3.3570     4.1200     0.1070 ha         1 BEH       0.138500
     56 H141        -2.6190     0.3600     1.7940 hn         1 BEH       0.345500
     57 H151        -4.5860     2.2350     0.6280 h1         1 BEH       0.092700
     58 H171        -3.3440    -0.0930    -1.3640 ha         1 BEH       0.143000
     59 H181        -4.6510    -1.7340    -2.6810 ha         1 BEH       0.135000
     60 H191        -6.9330    -2.3520    -1.9890 ha         1 BEH       0.129000
     61 H201        -7.9490    -1.3450     0.0310 ha         1 BEH       0.130000
     62 H221        -7.1780     0.0280     2.4170 hc         1 BEH       0.058700
     63 H222        -7.1660     1.5020     1.4610 hc         1 BEH       0.058700
     64 H231        -5.2740     1.9290     2.8810 h1         1 BEH       0.045700
     65 H241        -5.1010    -0.1560     3.8210 ho         1 BEH       0.405000
     66 H311         1.6160     0.2900    -0.1410 h1         1 BEH       0.134700
     67 H321         1.7820     0.1330     2.6720 ho         1 BEH       0.388000
     68 H331         1.4510    -2.0360     1.8270 h1         1 BEH       0.032700
     69 H351         1.5800    -4.1690    -0.4360 h1         1 BEH       0.036200
     70 H352         0.7270    -3.9620     1.0930 h1         1 BEH       0.036200
     71 H371         0.4050    -5.7100    -1.7480 ha         1 BEH       0.137000
     72 H381        -1.6900    -6.5580    -2.7330 ha         1 BEH       0.133500
     73 H391        -3.8510    -5.4960    -2.1560 ha         1 BEH       0.128000
     74 H401        -3.8960    -3.5840    -0.5870 ha         1 BEH       0.133500
     75 H411        -1.8100    -2.7480     0.4100 ha         1 BEH       0.137000
     76 H441         3.6320    -1.8390     2.3600 hn         1 BEH       0.309500
     77 H451         5.8530    -2.1710     2.1320 h1         1 BEH       0.055200
     78 H452         5.6190    -2.7490     0.4990 h1         1 BEH       0.055200
     79 H471         7.6650    -1.6630    -0.2190 ha         1 BEH       0.133000
     80 H481         8.7370     0.3880    -1.0540 ha         1 BEH       0.128500
     81 H491         7.6610     2.5920    -0.6850 ha         1 BEH       0.129000
     82 H501         5.5050     2.7090     0.5230 ha         1 BEH       0.128500
     83 H511         4.4340     0.6620     1.3570 ha         1 BEH       0.133000
@<TRIPOS>BOND
     1     1     2 1   
     2     1     3 1   
     3     1    25 1   
     4     1    46 1   
     5     2    47 1   
     6     3     4 1   
     7     3    12 1   
     8     3    48 1   
     9     4     5 1   
    10     5     6 1   
    11     5    49 1   
    12     5    50 1   
    13     6     7 ar  
    14     6    11 ar  
    15     7     8 ar  
    16     7    51 1   
    17     8     9 ar  
    18     8    52 1   
    19     9    10 ar  
    20     9    53 1   
    21    10    11 ar  
    22    10    54 1   
    23    11    55 1   
    24    12    13 2   
    25    12    14 1   
    26    14    15 1   
    27    14    56 1   
    28    15    16 1   
    29    15    23 1   
    30    15    57 1   
    31    16    17 ar  
    32    16    21 ar  
    33    17    18 ar  
    34    17    58 1   
    35    18    19 ar  
    36    18    59 1   
    37    19    20 ar  
    38    19    60 1   
    39    20    21 ar  
    40    20    61 1   
    41    21    22 1   
    42    22    23 1   
    43    22    62 1   
    44    22    63 1   
    45    23    24 1   
    46    23    64 1   
    47    24    65 1   
    48    25    26 1   
    49    25    27 1   
    50    25    66 1   
    51    26    67 1   
    52    27    28 1   
    53    27    36 1   
    54    27    68 1   
    55    28    29 1   
    56    29    30 1   
    57    29    69 1   
    58    29    70 1   
    59    30    31 ar  
    60    30    35 ar  
    61    31    32 ar  
    62    31    71 1   
    63    32    33 ar  
    64    32    72 1   
    65    33    34 ar  
    66    33    73 1   
    67    34    35 ar  
    68    34    74 1   
    69    35    75 1   
    70    36    37 2   
    71    36    38 1   
    72    38    39 1   
    73    38    76 1   
    74    39    40 1   
    75    39    77 1   
    76    39    78 1   
    77    40    41 ar  
    78    40    45 ar  
    79    41    42 ar  
    80    41    79 1   
    81    42    43 ar  
    82    42    80 1   
    83    43    44 ar  
    84    43    81 1   
    85    44    45 ar  
    86    44    82 1   
    87    45    83 1   
@<TRIPOS>SUBSTRUCTURE
     1 BEH         1 TEMP              0 ****  ****    0 ROOT
