@<TRIPOS>MOLECULE
BEI
   96    97     1     0     0
SMALL
No Charge or Current Charge


@<TRIPOS>ATOM
      1 C34          0.5090    -4.2380     0.3140 ca         1 BEI      -0.091300
      2 C35          0.6940    -4.0540     1.7000 ca         1 BEI      -0.088000
      3 C36          1.7320    -4.7220     2.3730 ca         1 BEI      -0.116500
      4 C37          2.5900    -5.5820     1.6680 ca         1 BEI      -0.103500
      5 C38          2.4110    -5.7710     0.2870 ca         1 BEI      -0.116500
      6 C39          1.3750    -5.1010    -0.3880 ca         1 BEI      -0.088000
      7 C40         -0.3190     4.1680     1.5720 ca         1 BEI      -0.091300
      8 C41          0.0690     4.3740     2.9120 ca         1 BEI      -0.088000
      9 C42         -0.8760     4.7850     3.8680 ca         1 BEI      -0.116500
     10 C43         -2.2160     4.9900     3.4910 ca         1 BEI      -0.103500
     11 C44         -2.6080     4.7850     2.1560 ca         1 BEI      -0.116500
     12 C45         -1.6630     4.3760     1.2000 ca         1 BEI      -0.088000
     13 O29          0.6210     2.2760     0.4420 os         1 BEI      -0.426500
     14 C5           1.4830     1.6530    -0.5490 c3         1 BEI       0.073800
     15 C4           0.8670     0.2650    -0.9340 c3         1 BEI       0.142300
     16 C3          -0.7050     0.2130    -0.9810 c3         1 BEI       0.142300
     17 C2          -1.3150    -1.2290    -0.9940 c3         1 BEI       0.073800
     18 C1          -2.7950    -1.2050    -0.4880 c          1 BEI       0.573600
     19 O17         -3.2160    -1.9130     0.4190 o          1 BEI      -0.587600
     20 N18         -3.6130    -0.2930    -1.1220 ns         1 BEI      -0.484900
     21 C19         -5.0150     0.0130    -0.7520 c3         1 BEI       0.031200
     22 C20         -5.1150     1.3580     0.0480 c3         1 BEI      -0.063200
     23 C21         -4.5210     1.1990     1.4700 c3         1 BEI      -0.094600
     24 C22         -4.4760     2.5950    -0.6530 c3         1 BEI      -0.076900
     25 C46         -5.0960     3.0010    -2.0060 c3         1 BEI      -0.096100
     26 C23         -5.9550    -0.0800    -1.9950 c          1 BEI       0.590100
     27 O24         -5.5540    -0.3330    -3.1250 o          1 BEI      -0.609100
     28 N25         -7.2950     0.1290    -1.7430 ns         1 BEI      -0.505400
     29 C26         -8.3420     0.0950    -2.7660 c3         1 BEI       0.094300
     30 O32         -0.4680    -2.0980    -0.1930 os         1 BEI      -0.426500
     31 C33         -0.6160    -3.5130    -0.4170 c3         1 BEI       0.210900
     32 O27         -1.1940     0.9580    -2.1260 oh         1 BEI      -0.717000
     33 O28          1.4160    -0.1850    -2.2010 oh         1 BEI      -0.717000
     34 N8           3.7120     0.5370    -0.6670 ns         1 BEI      -0.484900
     35 C9           5.0460     0.0590    -0.2350 c3         1 BEI       0.031200
     36 C10          4.9340    -1.2380     0.6410 c3         1 BEI      -0.063200
     37 C11          4.4670    -0.9000     2.0780 c3         1 BEI      -0.094600
     38 C12          4.0410    -2.3690     0.0460 c3         1 BEI      -0.076900
     39 C47          4.4760    -2.9110    -1.3310 c3         1 BEI      -0.096100
     40 C13          6.0110    -0.0730    -1.4560 c          1 BEI       0.590100
     41 O14          5.6670     0.1360    -2.6130 o          1 BEI      -0.609100
     42 N15          7.3080    -0.4290    -1.1490 ns         1 BEI      -0.505400
     43 C16          8.3730    -0.6060    -2.1390 c3         1 BEI       0.094300
     44 H35          0.0330    -3.3900     2.2530 ha         1 BEI       0.118750
     45 H36          1.8700    -4.5730     3.4420 ha         1 BEI       0.111000
     46 H37          3.3940    -6.0980     2.1890 ha         1 BEI       0.110000
     47 H38          3.0760    -6.4350    -0.2610 ha         1 BEI       0.111000
     48 H39          1.2470    -5.2530    -1.4570 ha         1 BEI       0.118750
     49 H41          1.1030     4.2130     3.2130 ha         1 BEI       0.118750
     50 H42         -0.5720     4.9440     4.9020 ha         1 BEI       0.111000
     51 H43         -2.9470     5.3060     4.2310 ha         1 BEI       0.110000
     52 H44         -3.6450     4.9430     1.8640 ha         1 BEI       0.111000
     53 H45         -1.9720     4.2190     0.1680 ha         1 BEI       0.118750
     54 H301         1.7010     4.0390     0.8330 h1         1 BEI       0.039700
     55 H302         0.4640     4.1730    -0.4320 h1         1 BEI       0.039700
     56 H5           1.5150     2.2710    -1.4560 h1         1 BEI       0.045700
     57 H4           1.1800    -0.4160    -0.1290 h1         1 BEI       0.126700
     58 H3          -1.0710     0.6770    -0.0530 h1         1 BEI       0.126700
     59 H2          -1.3300    -1.5840    -2.0330 h1         1 BEI       0.045700
     60 H18         -3.1670     0.2840    -1.8310 hn         1 BEI       0.330500
     61 H19         -5.3780    -0.7840    -0.0890 h1         1 BEI       0.092700
     62 H20         -6.1780     1.5850     0.1940 hc         1 BEI       0.042200
     63 H211        -4.6940     2.1020     2.0670 hc         1 BEI       0.043200
     64 H212        -4.9850     0.3560     1.9960 hc         1 BEI       0.043200
     65 H213        -3.4390     1.0240     1.4290 hc         1 BEI       0.043200
     66 H221        -3.4000     2.4340    -0.7880 hc         1 BEI       0.042950
     67 H222        -4.5720     3.4560     0.0200 hc         1 BEI       0.042950
     68 H461        -4.7110     3.9790    -2.3190 hc         1 BEI       0.036533
     69 H462        -4.8410     2.2820    -2.7920 hc         1 BEI       0.036533
     70 H463        -6.1880     3.0740    -1.9320 hc         1 BEI       0.036533
     71 H25         -7.5600     0.3220    -0.7840 hn         1 BEI       0.318000
     72 H261        -8.1280     0.8450    -3.5390 h1         1 BEI       0.041200
     73 H262        -8.3790    -0.9010    -3.2250 h1         1 BEI       0.041200
     74 H263        -9.3130     0.3190    -2.3060 h1         1 BEI       0.041200
     75 H331        -1.5830    -3.8750    -0.0450 h1         1 BEI       0.039700
     76 H332        -0.5600    -3.7400    -1.4900 h1         1 BEI       0.039700
     77 H27         -0.9030     0.4780    -2.9350 ho         1 BEI       0.495000
     78 H28          1.2860     0.5350    -2.8590 ho         1 BEI       0.495000
     79 H8           3.2550     0.0480    -1.4340 hn         1 BEI       0.330500
     80 H9           5.5090     0.8390     0.3840 h1         1 BEI       0.092700
     81 H10          5.9420    -1.6550     0.7540 hc         1 BEI       0.042200
     82 H111         3.4350    -0.5300     2.0810 hc         1 BEI       0.043200
     83 H112         4.5090    -1.7890     2.7190 hc         1 BEI       0.043200
     84 H113         5.1090    -0.1320     2.5280 hc         1 BEI       0.043200
     85 H121         4.0430    -3.2110     0.7480 hc         1 BEI       0.042950
     86 H122         2.9980    -2.0340    -0.0180 hc         1 BEI       0.042950
     87 H471         3.9060    -3.8140    -1.5780 hc         1 BEI       0.036533
     88 H472         4.2880    -2.1770    -2.1220 hc         1 BEI       0.036533
     89 H473         5.5420    -3.1700    -1.3320 hc         1 BEI       0.036533
     90 H15          7.5290    -0.5760    -0.1710 hn         1 BEI       0.318000
     91 H161         8.5380     0.3370    -2.6780 h1         1 BEI       0.041200
     92 H162         9.3010    -0.9000    -1.6310 h1         1 BEI       0.041200
     93 H163         8.0880    -1.3900    -2.8530 h1         1 BEI       0.041200
     94 C6           2.9560     1.5010    -0.0320 c          1 BEI       0.573600
     95 O7           3.4100     2.1360     0.9130 o          1 BEI      -0.587600
     96 C30          0.6980     3.7100     0.5360 c3         1 BEI       0.210900
@<TRIPOS>BOND
     1     1     2 ar  
     2     1     6 ar  
     3     1    31 1   
     4     2     3 ar  
     5     2    44 1   
     6     3     4 ar  
     7     3    45 1   
     8     4     5 ar  
     9     4    46 1   
    10     5     6 ar  
    11     5    47 1   
    12     6    48 1   
    13     7     8 ar  
    14     7    12 ar  
    15     7    96 1   
    16     8     9 ar  
    17     8    49 1   
    18     9    10 ar  
    19     9    50 1   
    20    10    11 ar  
    21    10    51 1   
    22    11    12 ar  
    23    11    52 1   
    24    12    53 1   
    25    13    14 1   
    26    13    96 1   
    27    14    15 1   
    28    14    56 1   
    29    14    94 1   
    30    15    16 1   
    31    15    33 1   
    32    15    57 1   
    33    16    17 1   
    34    16    32 1   
    35    16    58 1   
    36    17    18 1   
    37    17    30 1   
    38    17    59 1   
    39    18    19 2   
    40    18    20 1   
    41    20    21 1   
    42    20    60 1   
    43    21    22 1   
    44    21    26 1   
    45    21    61 1   
    46    22    23 1   
    47    22    24 1   
    48    22    62 1   
    49    23    63 1   
    50    23    64 1   
    51    23    65 1   
    52    24    25 1   
    53    24    66 1   
    54    24    67 1   
    55    25    68 1   
    56    25    69 1   
    57    25    70 1   
    58    26    27 2   
    59    26    28 1   
    60    28    29 1   
    61    28    71 1   
    62    29    72 1   
    63    29    73 1   
    64    29    74 1   
    65    30    31 1   
    66    31    75 1   
    67    31    76 1   
    68    32    77 1   
    69    33    78 1   
    70    34    35 1   
    71    34    79 1   
    72    34    94 1   
    73    35    36 1   
    74    35    40 1   
    75    35    80 1   
    76    36    37 1   
    77    36    38 1   
    78    36    81 1   
    79    37    82 1   
    80    37    83 1   
    81    37    84 1   
    82    38    39 1   
    83    38    85 1   
    84    38    86 1   
    85    39    87 1   
    86    39    88 1   
    87    39    89 1   
    88    40    41 2   
    89    40    42 1   
    90    42    43 1   
    91    42    90 1   
    92    43    91 1   
    93    43    92 1   
    94    43    93 1   
    95    54    96 1   
    96    55    96 1   
    97    94    95 2   
@<TRIPOS>SUBSTRUCTURE
     1 BEI         1 TEMP              0 ****  ****    0 ROOT
