@<TRIPOS>MOLECULE
BEI
   96    97     1     0     0
SMALL
bcc


@<TRIPOS>ATOM
      1 C34         -0.3830    -4.0760     0.8350 ca         1 BEI      -0.091300
      2 C35         -0.7770    -5.1000     1.6870 ca         1 BEI      -0.106000
      3 C36          0.1490    -6.0210     2.1630 ca         1 BEI      -0.134500
      4 C37          1.4830    -5.9180     1.7950 ca         1 BEI      -0.121500
      5 C38          1.8860    -4.8920     0.9470 ca         1 BEI      -0.134500
      6 C39          0.9600    -3.9780     0.4690 ca         1 BEI      -0.106000
      7 C40          0.2780     4.1760     2.1190 ca         1 BEI      -0.091300
      8 C41          0.6400     4.8250     3.2930 ca         1 BEI      -0.106000
      9 C42         -0.3290     5.3550     4.1380 ca         1 BEI      -0.134500
     10 C43         -1.6730     5.2330     3.8160 ca         1 BEI      -0.121500
     11 C44         -2.0430     4.5830     2.6440 ca         1 BEI      -0.134500
     12 C45         -1.0750     4.0590     1.8020 ca         1 BEI      -0.106000
     13 O29          1.2000     2.1780     1.2600 os         1 BEI      -0.380100
     14 C5           1.7450     1.4820     0.1850 c3         1 BEI       0.050600
     15 C4           0.9040     0.2050    -0.0510 c3         1 BEI       0.119100
     16 C3          -0.5960     0.4920     0.0940 c3         1 BEI       0.119100
     17 C2          -1.4430    -0.7660    -0.1600 c3         1 BEI       0.050600
     18 C1          -2.8960    -0.4530     0.2120 c          1 BEI       0.640600
     19 O17         -3.2500    -0.4550     1.3800 o          1 BEI      -0.587600
     20 N18         -3.6950    -0.1600    -0.8220 ns         1 BEI      -0.551900
     21 C19         -5.0690     0.2450    -0.6960 c3         1 BEI       0.031200
     22 C20         -5.2460     1.7730    -0.8680 c3         1 BEI      -0.063200
     23 C21         -4.6730     2.5020     0.3460 c3         1 BEI      -0.094600
     24 C22         -4.6270     2.3460    -2.1440 c3         1 BEI      -0.076900
     25 C46         -5.1840     1.8310    -3.4650 c3         1 BEI      -0.096100
     26 C23         -5.9320    -0.6090    -1.6300 c          1 BEI       0.657100
     27 O24         -5.4500    -1.4330    -2.3940 o          1 BEI      -0.609100
     28 N25         -7.2490    -0.4040    -1.5270 ns         1 BEI      -0.572400
     29 C26         -8.2090    -1.1350    -2.3210 c3         1 BEI       0.094300
     30 O32         -0.9400    -1.7870     0.6440 os         1 BEI      -0.380100
     31 C33         -1.3760    -3.0860     0.3010 c3         1 BEI       0.187700
     32 O27         -1.0270     1.5490    -0.7290 oh         1 BEI      -0.594800
     33 O28          1.2180    -0.3730    -1.3020 oh         1 BEI      -0.594800
     34 N8           3.8270     0.3710    -0.4230 ns         1 BEI      -0.551900
     35 C9           5.1880    -0.0790    -0.3170 c3         1 BEI       0.031200
     36 C10          5.2710    -1.5900     0.0060 c3         1 BEI      -0.063200
     37 C11          4.6710    -1.8520     1.3850 c3         1 BEI      -0.094600
     38 C12          4.6150    -2.5090    -1.0290 c3         1 BEI      -0.076900
     39 C47          5.3020    -2.6120    -2.3860 c3         1 BEI      -0.096100
     40 C13          5.9690     0.3480    -1.5620 c          1 BEI       0.657100
     41 O14          5.4330     0.9020    -2.5110 o          1 BEI      -0.609100
     42 N15          7.2810     0.0890    -1.5230 ns         1 BEI      -0.572400
     43 C16          8.1620     0.4010    -2.6240 c3         1 BEI       0.094300
     44 H35         -1.8160    -5.1810     1.9840 ha         1 BEI       0.136750
     45 H36         -0.1720    -6.8160     2.8250 ha         1 BEI       0.129000
     46 H37          2.2070    -6.6320     2.1650 ha         1 BEI       0.128000
     47 H38          2.9250    -4.8110     0.6540 ha         1 BEI       0.129000
     48 H39          1.2780    -3.1860    -0.1970 ha         1 BEI       0.136750
     49 H41          1.6880     4.9180     3.5540 ha         1 BEI       0.136750
     50 H42         -0.0320     5.8590     5.0490 ha         1 BEI       0.129000
     51 H43         -2.4290     5.6420     4.4730 ha         1 BEI       0.128000
     52 H44         -3.0910     4.4880     2.3840 ha         1 BEI       0.129000
     53 H45         -1.3700     3.5600     0.8860 ha         1 BEI       0.136750
     54 H301         2.3170     3.9110     1.5120 h1         1 BEI       0.039700
     55 H302         1.1550     3.9390     0.1830 h1         1 BEI       0.039700
     56 H5           1.7080     2.0870    -0.7350 h1         1 BEI       0.045700
     57 H4           1.1720    -0.5460     0.6960 h1         1 BEI       0.126700
     58 H3          -0.7740     0.8180     1.1200 h1         1 BEI       0.126700
     59 H2          -1.3740    -1.0440    -1.2240 h1         1 BEI       0.045700
     60 H18         -3.3360    -0.2890    -1.7550 hn         1 BEI       0.330500
     61 H19         -5.3880    -0.0000     0.3220 h1         1 BEI       0.092700
     62 H20         -6.3220     1.9780    -0.8940 hc         1 BEI       0.042200
     63 H211        -4.8640     3.5730     0.2660 hc         1 BEI       0.043200
     64 H212        -5.1150     2.1500     1.2780 hc         1 BEI       0.043200
     65 H213        -3.5920     2.3680     0.4140 hc         1 BEI       0.043200
     66 H221        -3.5430     2.1980    -2.1130 hc         1 BEI       0.042950
     67 H222        -4.7700     3.4300    -2.1040 hc         1 BEI       0.042950
     68 H461        -4.7980     2.4260    -4.2940 hc         1 BEI       0.036533
     69 H462        -4.9080     0.7970    -3.6630 hc         1 BEI       0.036533
     70 H463        -6.2730     1.8970    -3.4940 hc         1 BEI       0.036533
     71 H25         -7.5990     0.2390    -0.8370 hn         1 BEI       0.318000
     72 H261        -8.0660    -0.9540    -3.3870 h1         1 BEI       0.041200
     73 H262        -8.1480    -2.2090    -2.1440 h1         1 BEI       0.041200
     74 H263        -9.2050    -0.7990    -2.0490 h1         1 BEI       0.041200
     75 H331        -2.3750    -3.2900     0.7060 h1         1 BEI       0.039700
     76 H332        -1.4460    -3.1830    -0.7900 h1         1 BEI       0.039700
     77 H27         -1.0330     1.2760    -1.6520 ho         1 BEI       0.396000
     78 H28          0.9980     0.2420    -2.0110 ho         1 BEI       0.396000
     79 H8           3.2760     0.0350    -1.1980 hn         1 BEI       0.330500
     80 H9           5.6370     0.4510     0.5280 h1         1 BEI       0.092700
     81 H10          6.3330    -1.8550     0.0620 hc         1 BEI       0.042200
     82 H111         3.5940    -1.6710     1.3950 hc         1 BEI       0.043200
     83 H112         4.8290    -2.8900     1.6770 hc         1 BEI       0.043200
     84 H113         5.1230    -1.2190     2.1490 hc         1 BEI       0.043200
     85 H121         4.5900    -3.5100    -0.5890 hc         1 BEI       0.042950
     86 H122         3.5650    -2.2280    -1.1630 hc         1 BEI       0.042950
     87 H471         4.8650    -3.4260    -2.9660 hc         1 BEI       0.036533
     88 H472         5.2030    -1.7090    -2.9860 hc         1 BEI       0.036533
     89 H473         6.3670    -2.8230    -2.2750 hc         1 BEI       0.036533
     90 H15          7.6790    -0.3360    -0.7030 hn         1 BEI       0.318000
     91 H161         8.2070     1.4740    -2.8160 h1         1 BEI       0.041200
     92 H162         9.1610     0.0560    -2.3730 h1         1 BEI       0.041200
     93 H163         7.8450    -0.0980    -3.5400 h1         1 BEI       0.041200
     94 C6           3.2220     1.1590     0.4780 c          1 BEI       0.640600
     95 O7           3.7760     1.6160     1.4650 o          1 BEI      -0.587600
     96 C30          1.3170     3.5860     1.2090 c3         1 BEI       0.187700
@<TRIPOS>BOND
     1     1     2 ar  
     2     1     6 ar  
     3     1    31 1   
     4     2     3 ar  
     5     2    44 1   
     6     3     4 ar  
     7     3    45 1   
     8     4     5 ar  
     9     4    46 1   
    10     5     6 ar  
    11     5    47 1   
    12     6    48 1   
    13     7     8 ar  
    14     7    12 ar  
    15     7    96 1   
    16     8     9 ar  
    17     8    49 1   
    18     9    10 ar  
    19     9    50 1   
    20    10    11 ar  
    21    10    51 1   
    22    11    12 ar  
    23    11    52 1   
    24    12    53 1   
    25    13    14 1   
    26    13    96 1   
    27    14    15 1   
    28    14    56 1   
    29    14    94 1   
    30    15    16 1   
    31    15    33 1   
    32    15    57 1   
    33    16    17 1   
    34    16    32 1   
    35    16    58 1   
    36    17    18 1   
    37    17    30 1   
    38    17    59 1   
    39    18    19 2   
    40    18    20 1   
    41    20    21 1   
    42    20    60 1   
    43    21    22 1   
    44    21    26 1   
    45    21    61 1   
    46    22    23 1   
    47    22    24 1   
    48    22    62 1   
    49    23    63 1   
    50    23    64 1   
    51    23    65 1   
    52    24    25 1   
    53    24    66 1   
    54    24    67 1   
    55    25    68 1   
    56    25    69 1   
    57    25    70 1   
    58    26    27 2   
    59    26    28 1   
    60    28    29 1   
    61    28    71 1   
    62    29    72 1   
    63    29    73 1   
    64    29    74 1   
    65    30    31 1   
    66    31    75 1   
    67    31    76 1   
    68    32    77 1   
    69    33    78 1   
    70    34    35 1   
    71    34    79 1   
    72    34    94 1   
    73    35    36 1   
    74    35    40 1   
    75    35    80 1   
    76    36    37 1   
    77    36    38 1   
    78    36    81 1   
    79    37    82 1   
    80    37    83 1   
    81    37    84 1   
    82    38    39 1   
    83    38    85 1   
    84    38    86 1   
    85    39    87 1   
    86    39    88 1   
    87    39    89 1   
    88    40    41 2   
    89    40    42 1   
    90    42    43 1   
    91    42    90 1   
    92    43    91 1   
    93    43    92 1   
    94    43    93 1   
    95    54    96 1   
    96    55    96 1   
    97    94    95 2   
@<TRIPOS>SUBSTRUCTURE
     1 BEI         1 TEMP              0 ****  ****    0 ROOT
