@<TRIPOS>MOLECULE
BEJ
  108   111     1     0     0
SMALL
No Charge or Current Charge


@<TRIPOS>ATOM
      1 C01          4.0240     0.7870    -0.0620 ca         1 BEJ      -0.084800
      2 C02          3.6500     0.3290    -1.3390 ca         1 BEJ      -0.087750
      3 C03          4.4430    -0.6100    -2.0190 ca         1 BEJ      -0.103500
      4 C04          5.6370    -1.1150    -1.4460 cp         1 BEJ      -0.028000
      5 C05          6.0030    -0.6360    -0.1620 ca         1 BEJ      -0.103500
      6 C06          5.2070     0.2990     0.5220 ca         1 BEJ      -0.087750
      7 C07         -4.1140    -0.7740    -0.0850 ca         1 BEJ      -0.084800
      8 C08         -3.9700    -0.9190    -1.4770 ca         1 BEJ      -0.087750
      9 C09         -4.7020    -0.1010    -2.3550 ca         1 BEJ      -0.103500
     10 C10         -5.6000     0.8810    -1.8670 cp         1 BEJ      -0.028000
     11 C11         -5.7350     1.0090    -0.4610 ca         1 BEJ      -0.103500
     12 C12         -5.0000     0.1960     0.4190 ca         1 BEJ      -0.087750
     13 O14         -1.9360    -1.1560     0.8070 os         1 BEJ      -0.424500
     14 C15         -1.0010    -1.7250     1.7610 c3         1 BEJ       0.072800
     15 C16          0.1680    -0.7010     1.9490 c3         1 BEJ       0.141300
     16 C17         -0.2680     0.8130     1.9440 c3         1 BEJ       0.141300
     17 C18          0.8870     1.8370     1.6790 c3         1 BEJ       0.072800
     18 C19          0.3170     3.2000     1.1590 c          1 BEJ       0.573600
     19 O20          0.7800     3.8110     0.2030 o          1 BEJ      -0.586100
     20 N21         -0.8050     3.6560     1.8210 ns         1 BEJ      -0.489400
     21 C22         -1.6380     4.8130     1.4190 c3         1 BEJ       0.032200
     22 C23         -2.9630     4.3410     0.7380 c3         1 BEJ      -0.067700
     23 C24         -2.7110     3.5550    -0.5710 c3         1 BEJ      -0.092600
     24 C25         -3.8790     3.5370     1.6940 c3         1 BEJ      -0.092600
     25 C26         -1.8890     5.7590     2.6350 c          1 BEJ       0.587600
     26 O27         -1.5750     5.4780     3.7860 o          1 BEJ      -0.610100
     27 N28         -2.4950     6.9600     2.3290 ns         1 BEJ      -0.503400
     28 C29         -2.8300     7.9900     3.3140 c3         1 BEJ       0.093800
     29 O30          1.8130     1.2300     0.7390 os         1 BEJ      -0.424500
     30 C31          3.1420     1.7780     0.6910 c3         1 BEJ       0.210900
     31 O32         -0.9430     1.1400     3.1860 oh         1 BEJ      -0.716500
     32 O33          0.9050    -1.0000     3.1630 oh         1 BEJ      -0.716500
     33 N36          0.7390    -3.5130     1.8320 ns         1 BEJ      -0.489400
     34 C37          1.5400    -4.6840     1.4080 c3         1 BEJ       0.032200
     35 C38          2.6760    -4.2640     0.4200 c3         1 BEJ      -0.067700
     36 C39          2.1260    -3.6940    -0.9100 c3         1 BEJ      -0.092600
     37 C40          3.7010    -3.2890     1.0520 c3         1 BEJ      -0.092600
     38 C41          2.0830    -5.4550     2.6500 c          1 BEJ       0.587600
     39 O42          2.0160    -5.0240     3.7950 o          1 BEJ      -0.610100
     40 N43          2.6480    -6.6840     2.3770 ns         1 BEJ      -0.503400
     41 C44          3.2190    -7.5730     3.3910 c3         1 BEJ       0.093800
     42 C45          6.4760    -2.1260    -2.1650 cp         1 BEJ      -0.083000
     43 C46          7.8830    -2.1730    -2.0060 ca         1 BEJ      -0.067000
     44 C47          8.6200    -3.1440    -2.7030 ca         1 BEJ      -0.165500
     45 C48          7.9460    -4.0470    -3.5410 ca         1 BEJ       0.335400
     46 N49          6.6060    -4.0270    -3.7110 nb         1 BEJ      -0.665500
     47 C50          5.8980    -3.0880    -3.0380 ca         1 BEJ       0.346900
     48 C51         -6.3740     1.7580    -2.8030 cp         1 BEJ      -0.083000
     49 C52         -7.6680     2.2350    -2.4770 ca         1 BEJ      -0.067000
     50 C53         -8.3480     3.0530    -3.3940 ca         1 BEJ      -0.165500
     51 C54         -7.7300     3.3810    -4.6120 ca         1 BEJ       0.335400
     52 N55         -6.4960     2.9420    -4.9500 nb         1 BEJ      -0.665500
     53 C56         -5.8440     2.1520    -4.0630 ca         1 BEJ       0.346900
     54 H2           2.7360     0.6970    -1.8020 ha         1 BEJ       0.122000
     55 H3           4.1280    -0.9400    -3.0060 ha         1 BEJ       0.114750
     56 H5           6.9010    -1.0100     0.3220 ha         1 BEJ       0.114750
     57 H6           5.5090     0.6350     1.5110 ha         1 BEJ       0.122000
     58 H8          -3.2830    -1.6610    -1.8780 ha         1 BEJ       0.122000
     59 H9          -4.5750    -0.2420    -3.4260 ha         1 BEJ       0.114750
     60 H11         -6.4020     1.7590    -0.0440 ha         1 BEJ       0.114750
     61 H12         -5.1140     0.3290     1.4930 ha         1 BEJ       0.122000
     62 H131        -3.3550    -2.6870     0.5520 h1         1 BEJ       0.039950
     63 H132        -3.6910    -1.5540     1.8800 h1         1 BEJ       0.039950
     64 H15         -1.4930    -1.8640     2.7320 h1         1 BEJ       0.046700
     65 H16          0.8180    -0.8540     1.0750 h1         1 BEJ       0.125700
     66 H17         -0.9610     0.9480     1.1010 h1         1 BEJ       0.125700
     67 H18          1.3960     2.0320     2.6310 h1         1 BEJ       0.046700
     68 H21         -1.1360     3.0700     2.5840 hn         1 BEJ       0.335000
     69 H22         -1.0790     5.4160     0.6910 h1         1 BEJ       0.090200
     70 H23         -3.5200     5.2420     0.4500 hc         1 BEJ       0.044700
     71 H241        -3.6570     3.3490    -1.0860 hc         1 BEJ       0.041033
     72 H242        -2.0740     4.1310    -1.2530 hc         1 BEJ       0.041033
     73 H243        -2.2220     2.5940    -0.3710 hc         1 BEJ       0.041033
     74 H251        -4.1020     4.1060     2.6040 hc         1 BEJ       0.041033
     75 H252        -4.8340     3.3080     1.2060 hc         1 BEJ       0.041033
     76 H253        -3.4120     2.5880     1.9860 hc         1 BEJ       0.041033
     77 H28         -2.7240     7.1270     1.3550 hn         1 BEJ       0.318500
     78 H291        -3.3200     8.8340     2.8100 h1         1 BEJ       0.041867
     79 H292        -3.5120     7.5740     4.0670 h1         1 BEJ       0.041867
     80 H293        -1.9150     8.3440     3.8060 h1         1 BEJ       0.041867
     81 H311         3.1550     2.7460     0.1750 h1         1 BEJ       0.039950
     82 H312         3.5380     1.9230     1.7040 h1         1 BEJ       0.039950
     83 H32         -0.2690     1.1170     3.9030 ho         1 BEJ       0.496500
     84 H33          0.2620    -1.0040     3.9090 ho         1 BEJ       0.496500
     85 H36          1.1490    -2.8730     2.5100 hn         1 BEJ       0.335000
     86 H37          0.8810    -5.3920     0.8890 h1         1 BEJ       0.090200
     87 H38          3.2290    -5.1750     0.1550 hc         1 BEJ       0.044700
     88 H391         1.6190    -2.7350    -0.7510 hc         1 BEJ       0.041033
     89 H392         2.9420    -3.5290    -1.6240 hc         1 BEJ       0.041033
     90 H393         1.4140    -4.3910    -1.3670 hc         1 BEJ       0.041033
     91 H401         3.2380    -2.3220     1.2840 hc         1 BEJ       0.041033
     92 H402         4.1230    -3.7000     1.9760 hc         1 BEJ       0.041033
     93 H403         4.5310    -3.1100     0.3600 hc         1 BEJ       0.041033
     94 H43          2.6660    -6.9790     1.4080 hn         1 BEJ       0.318500
     95 H441         3.5790    -8.4930     2.9120 h1         1 BEJ       0.041867
     96 H442         4.0590    -7.0730     3.8910 h1         1 BEJ       0.041867
     97 H443         2.4520    -7.8280     4.1340 h1         1 BEJ       0.041867
     98 H46          8.3990    -1.4600    -1.3660 ha         1 BEJ       0.119500
     99 H47          9.7000    -3.1990    -2.6030 ha         1 BEJ       0.122500
    100 H48          8.4960    -4.8090    -4.0930 h4         1 BEJ       0.018600
    101 H50          4.8210    -3.1140    -3.1950 h4         1 BEJ       0.022600
    102 H52         -8.1450     1.9640    -1.5380 ha         1 BEJ       0.119500
    103 H53         -9.3430     3.4290    -3.1710 ha         1 BEJ       0.122500
    104 H54         -8.2380     4.0140    -5.3400 h4         1 BEJ       0.018600
    105 H56         -4.8490     1.8300    -4.3680 h4         1 BEJ       0.022600
    106 C34         -0.4720    -3.1250     1.2940 c          1 BEJ       0.573600
    107 O35         -1.0390    -3.8180     0.4580 o          1 BEJ      -0.586100
    108 C13         -3.2900    -1.6360     0.8620 c3         1 BEJ       0.210900
@<TRIPOS>BOND
     1     1     2 ar  
     2     1     6 ar  
     3     1    30 1   
     4     2     3 ar  
     5     2    54 1   
     6     3     4 ar  
     7     3    55 1   
     8     4     5 ar  
     9     4    42 1   
    10     5     6 ar  
    11     5    56 1   
    12     6    57 1   
    13     7     8 ar  
    14     7    12 ar  
    15     7   108 1   
    16     8     9 ar  
    17     8    58 1   
    18     9    10 ar  
    19     9    59 1   
    20    10    11 ar  
    21    10    48 1   
    22    11    12 ar  
    23    11    60 1   
    24    12    61 1   
    25    13    14 1   
    26    13   108 1   
    27    14    15 1   
    28    14    64 1   
    29    14   106 1   
    30    15    16 1   
    31    15    32 1   
    32    15    65 1   
    33    16    17 1   
    34    16    31 1   
    35    16    66 1   
    36    17    18 1   
    37    17    29 1   
    38    17    67 1   
    39    18    19 2   
    40    18    20 1   
    41    20    21 1   
    42    20    68 1   
    43    21    22 1   
    44    21    25 1   
    45    21    69 1   
    46    22    23 1   
    47    22    24 1   
    48    22    70 1   
    49    23    71 1   
    50    23    72 1   
    51    23    73 1   
    52    24    74 1   
    53    24    75 1   
    54    24    76 1   
    55    25    26 2   
    56    25    27 1   
    57    27    28 1   
    58    27    77 1   
    59    28    78 1   
    60    28    79 1   
    61    28    80 1   
    62    29    30 1   
    63    30    81 1   
    64    30    82 1   
    65    31    83 1   
    66    32    84 1   
    67    33    34 1   
    68    33    85 1   
    69    33   106 1   
    70    34    35 1   
    71    34    38 1   
    72    34    86 1   
    73    35    36 1   
    74    35    37 1   
    75    35    87 1   
    76    36    88 1   
    77    36    89 1   
    78    36    90 1   
    79    37    91 1   
    80    37    92 1   
    81    37    93 1   
    82    38    39 2   
    83    38    40 1   
    84    40    41 1   
    85    40    94 1   
    86    41    95 1   
    87    41    96 1   
    88    41    97 1   
    89    42    43 ar  
    90    42    47 ar  
    91    43    44 ar  
    92    43    98 1   
    93    44    45 ar  
    94    44    99 1   
    95    45    46 ar  
    96    45   100 1   
    97    46    47 ar  
    98    47   101 1   
    99    48    49 ar  
   100    48    53 ar  
   101    49    50 ar  
   102    49   102 1   
   103    50    51 ar  
   104    50   103 1   
   105    51    52 ar  
   106    51   104 1   
   107    52    53 ar  
   108    53   105 1   
   109    62   108 1   
   110    63   108 1   
   111   106   107 2   
@<TRIPOS>SUBSTRUCTURE
     1 BEJ         1 TEMP              0 ****  ****    0 ROOT
