@<TRIPOS>MOLECULE
BEJ
  108   111     1     0     0
SMALL
bcc


@<TRIPOS>ATOM
      1 C01          3.7150     1.2460    -0.3640 ca         1 BEJ      -0.084800
      2 C02          4.5440     1.8330    -1.3100 ca         1 BEJ      -0.105750
      3 C03          5.5850     1.1190    -1.8870 ca         1 BEJ      -0.121500
      4 C04          5.8140    -0.2110    -1.5380 cp         1 BEJ      -0.028000
      5 C05          4.9780    -0.7970    -0.5850 ca         1 BEJ      -0.121500
      6 C06          3.9460    -0.0810    -0.0060 ca         1 BEJ      -0.105750
      7 C07         -4.2900    -1.3810    -0.4070 ca         1 BEJ      -0.084800
      8 C08         -5.0470    -2.0340    -1.3710 ca         1 BEJ      -0.105750
      9 C09         -5.8940    -1.3250    -2.2120 ca         1 BEJ      -0.121500
     10 C10         -5.9970     0.0610    -2.1150 cp         1 BEJ      -0.028000
     11 C11         -5.2340     0.7150    -1.1440 ca         1 BEJ      -0.121500
     12 C12         -4.3950     0.0050    -0.3040 ca         1 BEJ      -0.105750
     13 O14         -2.0350    -1.7640     0.1690 os         1 BEJ      -0.378100
     14 C15         -1.0760    -2.0420     1.1390 c3         1 BEJ       0.049600
     15 C16         -0.0150    -0.9150     1.1330 c3         1 BEJ       0.118100
     16 C17         -0.6590     0.4640     0.9510 c3         1 BEJ       0.118100
     17 C18          0.3880     1.5860     1.0150 c3         1 BEJ       0.049600
     18 C19         -0.2810     2.9080     0.6200 c          1 BEJ       0.640600
     19 O20         -0.4710     3.1770    -0.5550 o          1 BEJ      -0.586100
     20 N21         -0.6340     3.6930     1.6460 ns         1 BEJ      -0.556400
     21 C22         -1.3020     4.9610     1.5000 c3         1 BEJ       0.032200
     22 C23         -2.8200     4.8800     1.7790 c3         1 BEJ      -0.067700
     23 C24         -3.5080     3.9250     0.8100 c3         1 BEJ      -0.092600
     24 C25         -3.1310     4.4950     3.2210 c3         1 BEJ      -0.092600
     25 C26         -0.6340     5.9730     2.4310 c          1 BEJ       0.654600
     26 O27          0.0790     5.6250     3.3620 o          1 BEJ      -0.610100
     27 N28         -0.9210     7.2510     2.1700 ns         1 BEJ      -0.570400
     28 C29         -0.4130     8.3400     2.9730 c3         1 BEJ       0.093800
     29 O30          1.4030     1.2680     0.1150 os         1 BEJ      -0.378100
     30 C31          2.5920     2.0120     0.2720 c3         1 BEJ       0.187700
     31 O32         -1.6990     0.7100     1.8660 oh         1 BEJ      -0.594300
     32 O33          0.7840    -0.9870     2.2960 oh         1 BEJ      -0.594300
     33 N36          0.6000    -3.7430     1.6290 ns         1 BEJ      -0.556400
     34 C37          1.3700    -4.9490     1.4820 c3         1 BEJ       0.032200
     35 C38          2.7530    -4.6820     0.8440 c3         1 BEJ      -0.067700
     36 C39          2.5970    -4.0530    -0.5350 c3         1 BEJ      -0.092600
     37 C40          3.6480    -3.8250     1.7330 c3         1 BEJ      -0.092600
     38 C41          1.5190    -5.6180     2.8460 c          1 BEJ       0.654600
     39 O42          1.3200    -5.0150     3.8910 o          1 BEJ      -0.610100
     40 N43          1.9180    -6.8940     2.8080 ns         1 BEJ      -0.570400
     41 C44          2.1640    -7.6670     4.0030 c3         1 BEJ       0.093800
     42 C45          6.9030    -0.9850    -2.1610 cp         1 BEJ      -0.148300
     43 C46          7.6370    -1.9320    -1.4500 ca         1 BEJ      -0.085000
     44 C47          8.6430    -2.6340    -2.0920 ca         1 BEJ      -0.248800
     45 C48          8.8900    -2.3660    -3.4290 ca         1 BEJ       0.400700
     46 N49          8.2000    -1.4700    -4.1250 nb         1 BEJ      -0.665500
     47 C50          7.2360    -0.8060    -3.5050 ca         1 BEJ       0.412200
     48 C51         -6.8850     0.8220    -3.0110 cp         1 BEJ      -0.148300
     49 C52         -7.5850     1.9460    -2.5780 ca         1 BEJ      -0.085000
     50 C53         -8.4010     2.6240    -3.4670 ca         1 BEJ      -0.248800
     51 C54         -8.4990     2.1550    -4.7680 ca         1 BEJ       0.400700
     52 N55         -7.8370     1.0880    -5.2020 nb         1 BEJ      -0.665500
     53 C56         -7.0540     0.4490    -4.3450 ca         1 BEJ       0.412200
     54 H2           4.3810     2.8630    -1.6030 ha         1 BEJ       0.140000
     55 H3           6.2260     1.6110    -2.6070 ha         1 BEJ       0.132750
     56 H5           5.1250    -1.8330    -0.3040 ha         1 BEJ       0.132750
     57 H6           3.3110    -0.5600     0.7300 ha         1 BEJ       0.140000
     58 H8          -4.9820    -3.1110    -1.4680 ha         1 BEJ       0.140000
     59 H9          -6.4890    -1.8650    -2.9380 ha         1 BEJ       0.132750
     60 H11         -5.2830     1.7940    -1.0550 ha         1 BEJ       0.132750
     61 H12         -3.8140     0.5310     0.4430 ha         1 BEJ       0.140000
     62 H131        -3.5090    -3.2120     0.3880 h1         1 BEJ       0.039950
     63 H132        -3.5690    -1.8740     1.5430 h1         1 BEJ       0.039950
     64 H15         -1.5300    -2.0710     2.1420 h1         1 BEJ       0.046700
     65 H16          0.6700    -1.0700     0.2960 h1         1 BEJ       0.125700
     66 H17         -1.1180     0.4830    -0.0390 h1         1 BEJ       0.125700
     67 H18          0.7880     1.6520     2.0400 h1         1 BEJ       0.046700
     68 H21         -0.3530     3.4310     2.5780 hn         1 BEJ       0.335000
     69 H22         -1.1660     5.2910     0.4680 h1         1 BEJ       0.090200
     70 H23         -3.2180     5.8830     1.5950 hc         1 BEJ       0.044700
     71 H241        -4.5900     3.9880     0.9300 hc         1 BEJ       0.041033
     72 H242        -3.2700     4.1540    -0.2290 hc         1 BEJ       0.041033
     73 H243        -3.2150     2.8920     1.0030 hc         1 BEJ       0.041033
     74 H251        -2.7230     5.2020     3.9440 hc         1 BEJ       0.041033
     75 H252        -4.2100     4.4600     3.3740 hc         1 BEJ       0.041033
     76 H253        -2.7380     3.5040     3.4590 hc         1 BEJ       0.041033
     77 H28         -1.4660     7.4760     1.3550 hn         1 BEJ       0.318500
     78 H291        -0.8540     9.2650     2.6130 h1         1 BEJ       0.041867
     79 H292        -0.6790     8.2170     4.0220 h1         1 BEJ       0.041867
     80 H293         0.6720     8.4250     2.9010 h1         1 BEJ       0.041867
     81 H311         2.5030     3.0070    -0.1820 h1         1 BEJ       0.039950
     82 H312         2.8060     2.1650     1.3380 h1         1 BEJ       0.039950
     83 H32         -1.3450     0.8610     2.7490 ho         1 BEJ       0.397500
     84 H33          0.2330    -0.8620     3.0780 ho         1 BEJ       0.397500
     85 H36          0.9210    -3.0620     2.3010 hn         1 BEJ       0.335000
     86 H37          0.8190    -5.6160     0.8160 h1         1 BEJ       0.090200
     87 H38          3.2320    -5.6570     0.7160 hc         1 BEJ       0.044700
     88 H391         2.2200    -3.0300    -0.4660 hc         1 BEJ       0.041033
     89 H392         3.5610    -4.0080    -1.0440 hc         1 BEJ       0.041033
     90 H393         1.9130    -4.6210    -1.1660 hc         1 BEJ       0.041033
     91 H401         3.1940    -2.8530     1.9420 hc         1 BEJ       0.041033
     92 H402         3.8750    -4.3010     2.6870 hc         1 BEJ       0.041033
     93 H403         4.6000    -3.6340     1.2360 hc         1 BEJ       0.041033
     94 H43          2.0270    -7.3510     1.9180 hn         1 BEJ       0.318500
     95 H441         2.5090    -8.6540     3.7090 h1         1 BEJ       0.041867
     96 H442         2.9320    -7.2070     4.6260 h1         1 BEJ       0.041867
     97 H443         1.2600    -7.7830     4.6020 h1         1 BEJ       0.041867
     98 H46          7.4400    -2.1080    -0.4000 ha         1 BEJ       0.137500
     99 H47          9.2310    -3.3710    -1.5630 ha         1 BEJ       0.140500
    100 H48          9.6750    -2.8940    -3.9590 h4         1 BEJ       0.018600
    101 H50          6.6790    -0.0980    -4.1090 h4         1 BEJ       0.022600
    102 H52         -7.5090     2.2790    -1.5500 ha         1 BEJ       0.137500
    103 H53         -8.9590     3.4970    -3.1580 ha         1 BEJ       0.140500
    104 H54         -9.1360     2.6580    -5.4870 h4         1 BEJ       0.018600
    105 H56         -6.5110    -0.4040    -4.7400 h4         1 BEJ       0.022600
    106 C34         -0.4520    -3.4220     0.8590 c          1 BEJ       0.640600
    107 O35         -0.9150    -4.1530    -0.0010 o          1 BEJ      -0.586100
    108 C13         -3.3590    -2.1330     0.4970 c3         1 BEJ       0.187700
@<TRIPOS>BOND
     1     1     2 ar  
     2     1     6 ar  
     3     1    30 1   
     4     2     3 ar  
     5     2    54 1   
     6     3     4 ar  
     7     3    55 1   
     8     4     5 ar  
     9     4    42 1   
    10     5     6 ar  
    11     5    56 1   
    12     6    57 1   
    13     7     8 ar  
    14     7    12 ar  
    15     7   108 1   
    16     8     9 ar  
    17     8    58 1   
    18     9    10 ar  
    19     9    59 1   
    20    10    11 ar  
    21    10    48 1   
    22    11    12 ar  
    23    11    60 1   
    24    12    61 1   
    25    13    14 1   
    26    13   108 1   
    27    14    15 1   
    28    14    64 1   
    29    14   106 1   
    30    15    16 1   
    31    15    32 1   
    32    15    65 1   
    33    16    17 1   
    34    16    31 1   
    35    16    66 1   
    36    17    18 1   
    37    17    29 1   
    38    17    67 1   
    39    18    19 2   
    40    18    20 1   
    41    20    21 1   
    42    20    68 1   
    43    21    22 1   
    44    21    25 1   
    45    21    69 1   
    46    22    23 1   
    47    22    24 1   
    48    22    70 1   
    49    23    71 1   
    50    23    72 1   
    51    23    73 1   
    52    24    74 1   
    53    24    75 1   
    54    24    76 1   
    55    25    26 2   
    56    25    27 1   
    57    27    28 1   
    58    27    77 1   
    59    28    78 1   
    60    28    79 1   
    61    28    80 1   
    62    29    30 1   
    63    30    81 1   
    64    30    82 1   
    65    31    83 1   
    66    32    84 1   
    67    33    34 1   
    68    33    85 1   
    69    33   106 1   
    70    34    35 1   
    71    34    38 1   
    72    34    86 1   
    73    35    36 1   
    74    35    37 1   
    75    35    87 1   
    76    36    88 1   
    77    36    89 1   
    78    36    90 1   
    79    37    91 1   
    80    37    92 1   
    81    37    93 1   
    82    38    39 2   
    83    38    40 1   
    84    40    41 1   
    85    40    94 1   
    86    41    95 1   
    87    41    96 1   
    88    41    97 1   
    89    42    43 ar  
    90    42    47 ar  
    91    43    44 ar  
    92    43    98 1   
    93    44    45 ar  
    94    44    99 1   
    95    45    46 ar  
    96    45   100 1   
    97    46    47 ar  
    98    47   101 1   
    99    48    49 ar  
   100    48    53 ar  
   101    49    50 ar  
   102    49   102 1   
   103    50    51 ar  
   104    50   103 1   
   105    51    52 ar  
   106    51   104 1   
   107    52    53 ar  
   108    53   105 1   
   109    62   108 1   
   110    63   108 1   
   111   106   107 2   
@<TRIPOS>SUBSTRUCTURE
     1 BEJ         1 TEMP              0 ****  ****    0 ROOT
