@<TRIPOS>MOLECULE
BEK
   20    20     1     0     0
SMALL
No Charge or Current Charge


@<TRIPOS>ATOM
      1 C1           0.3610    -0.1670    -2.7800 c          1 BEK       0.635700
      2 O            1.4170     0.1930    -3.2700 o          1 BEK      -0.563100
      3 N           -0.6460    -0.4790    -3.6210 nt         1 BEK      -0.592000
      4 C2           0.1240    -0.2500    -1.2840 ca         1 BEK      -0.210600
      5 C3          -1.1780    -0.2870    -0.7210 ca         1 BEK       0.181500
      6 C7           1.2230    -0.2860    -0.3870 ca         1 BEK       0.181500
      7 F3          -2.2840    -0.2250    -1.5000 f          1 BEK      -0.141000
      8 F7           2.4950    -0.2790    -0.8520 f          1 BEK      -0.141000
      9 C4          -1.3660    -0.3590     0.6730 ca         1 BEK       0.118000
     10 C6           1.0370    -0.3600     1.0090 ca         1 BEK       0.118000
     11 C5          -0.2720    -0.3970     1.5580 ca         1 BEK       0.083100
     12 F4          -2.6270    -0.3870     1.1700 f          1 BEK      -0.138500
     13 F6           2.1410    -0.3980     1.7930 f          1 BEK      -0.138500
     14 O5          -0.5610    -0.4690     2.9180 os         1 BEK      -0.330100
     15 C8           0.4290    -0.5120     3.9620 c3         1 BEK       0.145900
     16 HN1         -0.4940    -0.4150    -4.6160 hn         1 BEK       0.323000
     17 HN2         -1.5400    -0.7680    -3.2540 hn         1 BEK       0.323000
     18 H81         -0.0580    -0.5640     4.9430 h1         1 BEK       0.047700
     19 H82          1.0700    -1.3970     3.8590 h1         1 BEK       0.047700
     20 H83          1.0560     0.3890     3.9460 h1         1 BEK       0.047700
@<TRIPOS>BOND
     1     1     2 2   
     2     1     3 1   
     3     1     4 1   
     4     3    16 1   
     5     3    17 1   
     6     4     5 ar  
     7     4     6 ar  
     8     5     7 1   
     9     5     9 ar  
    10     6     8 1   
    11     6    10 ar  
    12     9    11 ar  
    13     9    12 1   
    14    10    11 ar  
    15    10    13 1   
    16    11    14 1   
    17    14    15 1   
    18    15    18 1   
    19    15    19 1   
    20    15    20 1   
@<TRIPOS>SUBSTRUCTURE
     1 BEK         1 TEMP              0 ****  ****    0 ROOT
