@<TRIPOS>MOLECULE
BEK
   20    20     1     0     0
SMALL
bcc


@<TRIPOS>ATOM
      1 C1           0.0170     0.0080    -2.7240 c          1 BEK       0.702700
      2 O            0.0260     1.0650    -3.3250 o          1 BEK      -0.563100
      3 N            0.0150    -1.2010    -3.2800 nt         1 BEK      -0.659000
      4 C2           0.0090    -0.0060    -1.2150 ca         1 BEK      -0.210600
      5 C3          -1.1790     0.0350    -0.5130 ca         1 BEK       0.146400
      6 C7           1.1910     0.0340    -0.5010 ca         1 BEK       0.146400
      7 F3          -2.3330     0.0040    -1.1790 f          1 BEK      -0.105900
      8 F7           2.3500     0.0030    -1.1560 f          1 BEK      -0.105900
      9 C4          -1.1940     0.0980     0.8670 ca         1 BEK       0.082900
     10 C6           1.1910     0.1000     0.8780 ca         1 BEK       0.082900
     11 C5          -0.0050     0.1420     1.5850 ca         1 BEK       0.083100
     12 F4          -2.3530     0.1300     1.5170 f          1 BEK      -0.103400
     13 F6           2.3440     0.1400     1.5400 f          1 BEK      -0.103400
     14 O5          -0.0160     0.2540     2.9240 os         1 BEK      -0.306900
     15 C8           0.0510    -0.9870     3.6340 c3         1 BEK       0.122700
     16 HN1          0.0130    -1.3040    -4.2830 hn         1 BEK       0.323000
     17 HN2         -0.0030    -2.0410    -2.7250 hn         1 BEK       0.323000
     18 H81          0.0550    -0.7390     4.6910 h1         1 BEK       0.047700
     19 H82         -0.8150    -1.6150     3.4170 h1         1 BEK       0.047700
     20 H83          0.9620    -1.5370     3.3940 h1         1 BEK       0.047700
@<TRIPOS>BOND
     1     1     2 2   
     2     1     3 1   
     3     1     4 1   
     4     3    16 1   
     5     3    17 1   
     6     4     5 ar  
     7     4     6 ar  
     8     5     7 1   
     9     5     9 ar  
    10     6     8 1   
    11     6    10 ar  
    12     9    11 ar  
    13     9    12 1   
    14    10    11 ar  
    15    10    13 1   
    16    11    14 1   
    17    14    15 1   
    18    15    18 1   
    19    15    19 1   
    20    15    20 1   
@<TRIPOS>SUBSTRUCTURE
     1 BEK         1 TEMP              0 ****  ****    0 ROOT
