@<TRIPOS>MOLECULE
BEL
   41    41     1     0     0
SMALL
No Charge or Current Charge


@<TRIPOS>ATOM
      1 O1           2.3020    -1.3760     3.4910 o          1 BEL      -0.383000
      2 N1           2.1970    -1.4070     2.2590 no         1 BEL       0.697200
      3 O2           3.1300    -1.6880     1.4980 o          1 BEL      -0.383000
      4 C1           0.8350    -1.4140     1.7040 ca         1 BEL      -0.256200
      5 C2          -0.1040    -2.3360     2.1990 ca         1 BEL       0.044000
      6 C3          -1.4140    -2.3640     1.6790 ca         1 BEL      -0.213200
      7 C4          -1.7980    -1.4630     0.6460 ca         1 BEL      -0.009600
      8 C5          -0.8290    -0.5370     0.1850 ca         1 BEL      -0.199000
      9 C6           0.4740    -0.5090     0.7020 ca         1 BEL       0.437000
     10 N2           1.3760     0.4600     0.2220 nh         1 BEL      -0.806400
     11 C7           1.7680     0.4730    -1.2110 c3         1 BEL       0.215300
     12 C8           2.8720    -0.5440    -1.5470 c3         1 BEL       0.056100
     13 Br1          3.3820    -0.4850    -3.4730 br         1 BEL      -0.236500
     14 C9           1.6380     1.6800     1.0240 c3         1 BEL       0.215300
     15 C10          3.1350     1.9710     1.2510 c3         1 BEL       0.056100
     16 Br2          3.4140     3.5740     2.4030 br         1 BEL      -0.236500
     17 C11         -3.1860    -1.4960     0.0100 c          1 BEL       0.625700
     18 O3          -3.8790    -2.5040    -0.0330 o          1 BEL      -0.560100
     19 N3          -3.6100    -0.3270    -0.5900 ns         1 BEL      -0.486900
     20 C12         -4.9020    -0.1650    -1.2980 c3         1 BEL      -0.001000
     21 C13         -5.0760     1.2630    -1.8610 c          1 BEL       0.437100
     22 O4          -4.2190     2.1370    -1.7150 o          1 BEL      -0.463100
     23 C14         -6.4200     1.5320    -2.6350 c          1 BEL       0.471900
     24 O5          -6.7030     2.6180    -3.1410 o          1 BEL      -0.438100
     25 N4          -2.3790    -3.3190     2.2830 no         1 BEL       0.709200
     26 O6          -3.3570    -2.8350     2.8670 o          1 BEL      -0.388500
     27 O7          -2.0030    -4.4890     2.4290 o          1 BEL      -0.388500
     28 H2           0.1810    -3.0270     2.9940 ha         1 BEL       0.182000
     29 H5          -1.0720     0.1700    -0.6020 ha         1 BEL       0.142000
     30 H71          0.8950     0.2590    -1.8420 h1         1 BEL       0.068450
     31 H72          2.1190     1.4740    -1.4980 h1         1 BEL       0.068450
     32 H81          3.7770    -0.3330    -0.9670 h1         1 BEL       0.091700
     33 H82          2.5300    -1.5650    -1.3350 h1         1 BEL       0.091700
     34 H91          1.1800     2.5490     0.5320 h1         1 BEL       0.068450
     35 H92          1.1600     1.5830     2.0080 h1         1 BEL       0.068450
     36 H101         3.6190     1.1270     1.7560 h1         1 BEL       0.091700
     37 H102         3.6420     2.1680     0.2990 h1         1 BEL       0.091700
     38 HN3         -3.0000     0.4790    -0.5050 hn         1 BEL       0.342500
     39 H121        -4.9590    -0.8770    -2.1320 h1         1 BEL       0.082200
     40 H122        -5.7310    -0.3700    -0.6070 h1         1 BEL       0.082200
     41 H14         -7.1220     0.6720    -2.7070 h4         1 BEL       0.013200
@<TRIPOS>BOND
     1     1     2 1   
     2     2     3 1   
     3     2     4 1   
     4     4     5 ar  
     5     4     9 ar  
     6     5     6 ar  
     7     5    28 1   
     8     6     7 ar  
     9     6    25 1   
    10     7     8 ar  
    11     7    17 1   
    12     8     9 ar  
    13     8    29 1   
    14     9    10 1   
    15    10    11 1   
    16    10    14 1   
    17    11    12 1   
    18    11    30 1   
    19    11    31 1   
    20    12    13 1   
    21    12    32 1   
    22    12    33 1   
    23    14    15 1   
    24    14    34 1   
    25    14    35 1   
    26    15    16 1   
    27    15    36 1   
    28    15    37 1   
    29    17    18 2   
    30    17    19 1   
    31    19    20 1   
    32    19    38 1   
    33    20    21 1   
    34    20    39 1   
    35    20    40 1   
    36    21    22 2   
    37    21    23 1   
    38    23    24 2   
    39    23    41 1   
    40    25    26 1   
    41    25    27 1   
@<TRIPOS>SUBSTRUCTURE
     1 BEL         1 TEMP              0 ****  ****    0 ROOT
