@<TRIPOS>MOLECULE
BEL
   41    41     1     0     0
SMALL
abcg2


@<TRIPOS>ATOM
      1 O1           1.9210    -1.1040     3.9440 o          1 BEL      -0.383000
      2 N1           1.9430    -1.2090     2.7420 no         1 BEL       0.697200
      3 O2           2.9190    -1.5020     2.0940 o          1 BEL      -0.383000
      4 C1           0.6950    -1.0490     2.0130 ca         1 BEL      -0.256200
      5 C2          -0.3750    -1.7400     2.5400 ca         1 BEL       0.044000
      6 C3          -1.5430    -1.8520     1.8140 ca         1 BEL      -0.213200
      7 C4          -1.6290    -1.2870     0.5420 ca         1 BEL      -0.009600
      8 C5          -0.5690    -0.5550     0.0570 ca         1 BEL      -0.199000
      9 C6           0.6210    -0.3480     0.7860 ca         1 BEL       0.437000
     10 N2           1.5860     0.4920     0.3210 nh         1 BEL      -0.806400
     11 C7           1.5520     0.9350    -1.0680 c3         1 BEL       0.215300
     12 C8           1.9910    -0.1950    -1.9860 c3         1 BEL       0.056100
     13 BR1          1.9840     0.4200    -3.8440 br         1 BEL      -0.236500
     14 C9           2.3800     1.3420     1.2020 c3         1 BEL       0.215300
     15 C10          3.8720     1.1880     0.9450 c3         1 BEL       0.056100
     16 BR2          4.8600     2.4180     2.1020 br         1 BEL      -0.236500
     17 C11         -2.7800    -1.5150    -0.4050 c          1 BEL       0.625700
     18 O3          -2.8800    -2.5650    -1.0090 o          1 BEL      -0.560100
     19 N3          -3.5790    -0.4580    -0.5780 ns         1 BEL      -0.486900
     20 C12         -4.6800    -0.4920    -1.4920 c3         1 BEL      -0.001000
     21 C13         -5.4010     0.8170    -1.5290 c          1 BEL       0.437100
     22 O4          -5.1120     1.7780    -0.8680 o          1 BEL      -0.463100
     23 C14         -6.5850     0.8680    -2.5000 c          1 BEL       0.471900
     24 O5          -7.2170     1.8750    -2.6360 o          1 BEL      -0.438100
     25 N4          -2.6610    -2.5490     2.3980 no         1 BEL       0.709200
     26 O6          -3.7300    -2.4620     1.8380 o          1 BEL      -0.388500
     27 O7          -2.4790    -3.1710     3.4180 o          1 BEL      -0.388500
     28 H2          -0.2770    -2.2270     3.5000 ha         1 BEL       0.182000
     29 H5          -0.6880    -0.1040    -0.9170 ha         1 BEL       0.142000
     30 H71          0.5750     1.3320    -1.3490 h1         1 BEL       0.068450
     31 H72          2.2460     1.7680    -1.1630 h1         1 BEL       0.068450
     32 H81          3.0040    -0.5170    -1.7520 h1         1 BEL       0.091700
     33 H82          1.3270    -1.0570    -1.9410 h1         1 BEL       0.091700
     34 H91          2.0830     2.3790     1.0200 h1         1 BEL       0.068450
     35 H92          2.1340     1.1530     2.2450 h1         1 BEL       0.068450
     36 H101         4.2340     0.1860     1.1560 h1         1 BEL       0.091700
     37 H102         4.1350     1.4510    -0.0790 h1         1 BEL       0.091700
     38 HN3         -3.4430     0.3730    -0.0210 hn         1 BEL       0.342500
     39 H121        -4.3520    -0.7270    -2.5130 h1         1 BEL       0.082200
     40 H122        -5.4090    -1.2710    -1.2330 h1         1 BEL       0.082200
     41 H14         -6.8090    -0.0590    -3.0510 h4         1 BEL       0.013200
@<TRIPOS>BOND
     1     1     2 1   
     2     2     3 1   
     3     2     4 1   
     4     4     5 ar  
     5     4     9 ar  
     6     5     6 ar  
     7     5    28 1   
     8     6     7 ar  
     9     6    25 1   
    10     7     8 ar  
    11     7    17 1   
    12     8     9 ar  
    13     8    29 1   
    14     9    10 1   
    15    10    11 1   
    16    10    14 1   
    17    11    12 1   
    18    11    30 1   
    19    11    31 1   
    20    12    13 1   
    21    12    32 1   
    22    12    33 1   
    23    14    15 1   
    24    14    34 1   
    25    14    35 1   
    26    15    16 1   
    27    15    36 1   
    28    15    37 1   
    29    17    18 2   
    30    17    19 1   
    31    19    20 1   
    32    19    38 1   
    33    20    21 1   
    34    20    39 1   
    35    20    40 1   
    36    21    22 2   
    37    21    23 1   
    38    23    24 2   
    39    23    41 1   
    40    25    26 1   
    41    25    27 1   
@<TRIPOS>SUBSTRUCTURE
     1 BEL         1 TEMP              0 ****  ****    0 ROOT
