@<TRIPOS>MOLECULE
BEM
   22    22     1     0     0
SMALL
No Charge or Current Charge


@<TRIPOS>ATOM
      1 C1          -6.5600     1.2050     1.0560 c6         1 BEM       0.353300
      2 C2          -6.1990     1.0930    -0.4610 c6         1 BEM       0.065300
      3 O2          -7.3380     0.6480    -1.2480 oh         1 BEM      -0.742000
      4 C3          -5.7260     2.4920    -0.9510 c6         1 BEM       0.130300
      5 O3          -5.4740     2.4450    -2.3660 oh         1 BEM      -0.707000
      6 C4          -6.7870     3.5950    -0.6280 c6         1 BEM       0.138300
      7 O4          -6.2770     4.8790    -1.0120 oh         1 BEM      -0.766000
      8 C5          -7.1880     3.5440     0.8770 c6         1 BEM      -0.016700
      9 O5          -7.6010     2.1790     1.2210 os         1 BEM      -0.447000
     10 C6          -8.2770     4.6290     1.1900 c          1 BEM       0.732000
     11 O6B         -9.4380     4.2370     1.2560 o          1 BEM      -0.698000
     12 O6A         -7.9150     5.5440     1.9220 o          1 BEM      -0.698000
     13 O1          -7.0850    -0.0320     1.5120 oh         1 BEM      -0.704000
     14 H1          -5.6760     1.4890     1.6490 h2         1 BEM       0.057700
     15 H2          -5.3600     0.3870    -0.5660 h1         1 BEM       0.072700
     16 HO2         -8.1030     1.2180    -0.9870 ho         1 BEM       0.522000
     17 H3          -4.7980     2.7430    -0.4110 h1         1 BEM       0.075700
     18 HO3         -6.0530     1.7130    -2.6890 ho         1 BEM       0.498000
     19 H4          -7.6930     3.3850    -1.2170 h1         1 BEM       0.019700
     20 HO4         -5.7940     4.7120    -1.8610 ho         1 BEM       0.572000
     21 H5          -6.3050     3.7930     1.4850 h1         1 BEM       0.030700
     22 HO1         -7.5730    -0.3740     0.7290 ho         1 BEM       0.512000
@<TRIPOS>BOND
     1     1     2 1   
     2     1     9 1   
     3     1    13 1   
     4     1    14 1   
     5     2     3 1   
     6     2     4 1   
     7     2    15 1   
     8     3    16 1   
     9     4     5 1   
    10     4     6 1   
    11     4    17 1   
    12     5    18 1   
    13     6     7 1   
    14     6     8 1   
    15     6    19 1   
    16     7    20 1   
    17     8     9 1   
    18     8    10 1   
    19     8    21 1   
    20    10    11 1   
    21    10    12 1   
    22    13    22 1   
@<TRIPOS>SUBSTRUCTURE
     1 BEM         1 TEMP              0 ****  ****    0 ROOT
