@<TRIPOS>MOLECULE
BEM
   22    22     1     0     0
SMALL
abcg2


@<TRIPOS>ATOM
      1 C1          -6.5590     1.1670     0.9700 c6         1 BEM       0.353300
      2 C2          -6.3230     1.0420    -0.5340 c6         1 BEM       0.065300
      3 O2          -7.4890     0.5890    -1.1930 oh         1 BEM      -0.742000
      4 C3          -5.8090     2.3720    -1.0900 c6         1 BEM       0.130300
      5 O3          -5.5900     2.3050    -2.4770 oh         1 BEM      -0.707000
      6 C4          -6.7210     3.5270    -0.6870 c6         1 BEM       0.138300
      7 O4          -6.1260     4.7420    -1.0440 oh         1 BEM      -0.766000
      8 C5          -6.9770     3.4670     0.8320 c6         1 BEM      -0.016700
      9 O5          -7.4800     2.2070     1.2110 os         1 BEM      -0.447000
     10 C6          -7.9390     4.5850     1.2900 c          1 BEM       0.732000
     11 O6B         -8.8270     4.3130     2.0990 o          1 BEM      -0.698000
     12 O6A         -7.6960     5.7120     0.7790 o          1 BEM      -0.698000
     13 O1          -7.0450     0.0060     1.5340 oh         1 BEM      -0.704000
     14 H1          -5.6040     1.3940     1.4690 h2         1 BEM       0.057700
     15 H2          -5.5650     0.2720    -0.7090 h1         1 BEM       0.072700
     16 HO2         -8.2200     1.1900    -1.0050 ho         1 BEM       0.522000
     17 H3          -4.8280     2.5560    -0.6350 h1         1 BEM       0.075700
     18 HO3         -6.4110     2.0170    -2.8940 ho         1 BEM       0.498000
     19 H4          -7.6960     3.4040    -1.1970 h1         1 BEM       0.019700
     20 HO4         -6.6130     5.3940    -0.4850 ho         1 BEM       0.572000
     21 H5          -6.0060     3.6480     1.3290 h1         1 BEM       0.030700
     22 HO1         -7.6960    -0.3840     0.9370 ho         1 BEM       0.512000
@<TRIPOS>BOND
     1     1     2 1   
     2     1     9 1   
     3     1    13 1   
     4     1    14 1   
     5     2     3 1   
     6     2     4 1   
     7     2    15 1   
     8     3    16 1   
     9     4     5 1   
    10     4     6 1   
    11     4    17 1   
    12     5    18 1   
    13     6     7 1   
    14     6     8 1   
    15     6    19 1   
    16     7    20 1   
    17     8     9 1   
    18     8    10 1   
    19     8    21 1   
    20    10    11 1   
    21    10    12 1   
    22    13    22 1   
@<TRIPOS>SUBSTRUCTURE
     1 BEM         1 TEMP              0 ****  ****    0 ROOT
