@<TRIPOS>MOLECULE
BEN
   17    17     1     0     0
SMALL
No Charge or Current Charge


@<TRIPOS>ATOM
      1 C1           6.6910     9.9860    20.6350 ca         1 BEN      -0.199900
      2 C2           5.9510     9.1400    19.7740 ca         1 BEN      -0.088000
      3 C3           6.5340     8.6130    18.6080 ca         1 BEN      -0.113500
      4 C4           7.8680     8.9110    18.2900 ca         1 BEN      -0.097000
      5 C5           8.6210     9.7330    19.1430 ca         1 BEN      -0.113500
      6 C6           8.0420    10.2610    20.3100 ca         1 BEN      -0.088000
      7 C            6.0840    10.5140    21.8960 ce         1 BEN       0.670800
      8 N1           6.7640    10.8870    22.8990 n2         1 BEN      -0.852100
      9 N2           4.7640    10.7610    21.9060 nv         1 BEN      -1.047200
     10 H2           4.9210     8.8760    20.0090 ha         1 BEN       0.121000
     11 H3           5.9520     7.9680    17.9540 ha         1 BEN       0.116000
     12 H4           8.3190     8.5020    17.3880 ha         1 BEN       0.115000
     13 H5           9.6570     9.9610    18.9000 ha         1 BEN       0.116000
     14 H6           8.6490    10.8990    20.9500 ha         1 BEN       0.121000
     15 HN1          7.7360    10.5890    22.7420 hn         1 BEN       0.389400
     16 HN21         4.4850    11.4150    22.6260 hn         1 BEN       0.475000
     17 HN22         4.3450    10.9030    20.9950 hn         1 BEN       0.475000
@<TRIPOS>BOND
     1     1     2 ar  
     2     1     6 ar  
     3     1     7 1   
     4     2     3 ar  
     5     2    10 1   
     6     3     4 ar  
     7     3    11 1   
     8     4     5 ar  
     9     4    12 1   
    10     5     6 ar  
    11     5    13 1   
    12     6    14 1   
    13     7     8 2   
    14     7     9 1   
    15     8    15 1   
    16     9    16 1   
    17     9    17 1   
@<TRIPOS>SUBSTRUCTURE
     1 BEN         1 TEMP              0 ****  ****    0 ROOT
