@<TRIPOS>MOLECULE
BEN
   17    17     1     0     0
SMALL
bcc


@<TRIPOS>ATOM
      1 C1           6.7130     9.9940    20.6160 ca         1 BEN      -0.199900
      2 C2           5.9850     9.1140    19.8170 ca         1 BEN      -0.106000
      3 C3           6.5560     8.5690    18.6750 ca         1 BEN      -0.131500
      4 C4           7.8520     8.9090    18.3140 ca         1 BEN      -0.115000
      5 C5           8.5800     9.7900    19.1020 ca         1 BEN      -0.131500
      6 C6           8.0160    10.3250    20.2510 ca         1 BEN      -0.106000
      7 C            6.1310    10.5540    21.8680 ce         1 BEN       0.670800
      8 N1           6.7690    10.6820    22.9680 n2         1 BEN      -0.852100
      9 N2           4.8170    10.8980    21.7850 nv         1 BEN      -0.936800
     10 H2           4.9740     8.8390    20.0930 ha         1 BEN       0.139000
     11 H3           5.9860     7.8770    18.0690 ha         1 BEN       0.134000
     12 H4           8.2950     8.4890    17.4200 ha         1 BEN       0.133000
     13 H5           9.5890    10.0650    18.8230 ha         1 BEN       0.134000
     14 H6           8.5870    11.0170    20.8580 ha         1 BEN       0.139000
     15 HN1          7.6970    10.2860    22.8980 hn         1 BEN       0.389400
     16 HN21         4.4140    11.3720    22.5770 hn         1 BEN       0.419800
     17 HN22         4.4240    11.1390    20.8920 hn         1 BEN       0.419800
@<TRIPOS>BOND
     1     1     2 ar  
     2     1     6 ar  
     3     1     7 1   
     4     2     3 ar  
     5     2    10 1   
     6     3     4 ar  
     7     3    11 1   
     8     4     5 ar  
     9     4    12 1   
    10     5     6 ar  
    11     5    13 1   
    12     6    14 1   
    13     7     8 2   
    14     7     9 1   
    15     8    15 1   
    16     9    16 1   
    17     9    17 1   
@<TRIPOS>SUBSTRUCTURE
     1 BEN         1 TEMP              0 ****  ****    0 ROOT
