@<TRIPOS>MOLECULE
BEO
   11    10     1     0     0
SMALL
abcg2


@<TRIPOS>ATOM
      1 C1           0.0760     0.0250    -1.0660 c          1 BEO       0.699200
      2 O1           1.2370    -0.3990    -1.2380 o          1 BEO      -0.735000
      3 O2          -0.7290     0.3660    -1.9590 o          1 BEO      -0.735000
      4 C2          -0.4310     0.1500     0.3510 ce         1 BEO      -0.254200
      5 C3           0.2930    -0.1410     1.4300 c2         1 BEO      -0.277200
      6 C4          -0.1770    -0.0220     2.8410 c3         1 BEO      -0.041900
      7 H2          -1.4520     0.5030     0.4770 ha         1 BEO       0.136000
      8 H3           1.3120    -0.4910     1.2900 ha         1 BEO       0.178000
      9 H41          0.4410     0.6840     3.4010 hc         1 BEO       0.010700
     10 H42         -1.2120     0.3120     2.9020 hc         1 BEO       0.010700
     11 H43         -0.0970    -0.9790     3.3630 hc         1 BEO       0.010700
@<TRIPOS>BOND
     1     1     2 1   
     2     1     3 1   
     3     1     4 1   
     4     4     5 2   
     5     4     7 1   
     6     5     6 1   
     7     5     8 1   
     8     6     9 1   
     9     6    10 1   
    10     6    11 1   
@<TRIPOS>SUBSTRUCTURE
     1 BEO         1 TEMP              0 ****  ****    0 ROOT
