@<TRIPOS>MOLECULE
BEO
   11    10     1     0     0
SMALL
No Charge or Current Charge


@<TRIPOS>ATOM
      1 C1           0.0740     0.0630    -1.0810 c          1 BEO       0.699200
      2 O1           1.0260    -0.6650    -1.3150 o          1 BEO      -0.735000
      3 O2          -0.5660     0.6330    -1.9490 o          1 BEO      -0.735000
      4 C2          -0.3450     0.2770     0.3410 ce         1 BEO      -0.254200
      5 C3           0.2450    -0.2730     1.4320 c2         1 BEO      -0.277200
      6 C4          -0.1850    -0.0500     2.8640 c3         1 BEO      -0.041900
      7 H2          -1.2010     0.9380     0.4660 ha         1 BEO       0.136000
      8 H3           1.1060    -0.9380     1.3210 ha         1 BEO       0.178000
      9 H41         -0.1270     1.0120     3.1320 hc         1 BEO       0.010700
     10 H42         -1.2190    -0.3810     3.0210 hc         1 BEO       0.010700
     11 H43          0.4540    -0.6070     3.5600 hc         1 BEO       0.010700
@<TRIPOS>BOND
     1     1     2 1   
     2     1     3 1   
     3     1     4 1   
     4     4     5 2   
     5     4     7 1   
     6     5     6 1   
     7     5     8 1   
     8     6     9 1   
     9     6    10 1   
    10     6    11 1   
@<TRIPOS>SUBSTRUCTURE
     1 BEO         1 TEMP              0 ****  ****    0 ROOT
