@<TRIPOS>MOLECULE
BEP
   61    63     1     0     0
SMALL
abcg2


@<TRIPOS>ATOM
      1 C1           3.8990    13.0950    -2.8460 c3         1 BEP       0.148600
      2 C2           3.5910    11.8250    -3.6380 c3         1 BEP       0.162500
      3 C3           3.4430    10.6680    -2.6300 c3         1 BEP       0.242800
      4 O1           2.8120    13.3420    -1.9660 os         1 BEP      -0.468000
      5 N2           4.6310    11.5310    -4.6300 n3         1 BEP      -0.729600
      6 N3           3.1810     9.3500    -3.1810 nh         1 BEP      -0.838400
      7 C4           3.0530    14.3890    -1.0300 c3         1 BEP       0.160600
      8 C5           3.1340    15.7890    -1.6400 c3         1 BEP      -0.097700
      9 C6           1.8930    16.1100    -2.4700 c3         1 BEP      -0.085600
     10 C7           3.3400    16.8100    -0.5200 c3         1 BEP      -0.085600
     11 C8           5.3210    12.6740    -5.2450 c5         1 BEP       0.156300
     12 C9           6.1340    12.0350    -6.3750 c5         1 BEP      -0.079400
     13 C10          5.3240    10.7720    -6.7610 c5         1 BEP      -0.079400
     14 C11          4.1390    10.7770    -5.7920 c5         1 BEP       0.156300
     15 C12          4.3020     8.4440    -3.3200 c3         1 BEP       0.276100
     16 C13          4.4390     7.4110    -2.2170 ca         1 BEP      -0.108300
     17 C14          5.2480     6.2930    -2.4230 ca         1 BEP      -0.103000
     18 C15          5.4240     5.3480    -1.4190 ca         1 BEP      -0.109500
     19 C16          4.7850     5.5070    -0.1910 ca         1 BEP      -0.112000
     20 C17          3.9730     6.6160     0.0190 ca         1 BEP      -0.109500
     21 C18          3.8000     7.5610    -0.9880 ca         1 BEP      -0.103000
     22 C19          1.9040     8.9410    -3.4970 ca         1 BEP       0.337000
     23 C20          0.8050     9.8210    -3.4140 ca         1 BEP      -0.192500
     24 C21         -0.4760     9.3970    -3.7370 ca         1 BEP      -0.069000
     25 C22         -0.7210     8.0920    -4.1570 ca         1 BEP      -0.169000
     26 C23          0.3560     7.2150    -4.2440 ca         1 BEP      -0.069000
     27 C24          1.6430     7.6200    -3.9200 ca         1 BEP      -0.192500
     28 H11          4.8250    12.9670    -2.2690 h1         1 BEP       0.032200
     29 H12          4.0340    13.9410    -3.5210 h1         1 BEP       0.032200
     30 H21          2.6300    11.9920    -4.1500 h1         1 BEP       0.046700
     31 H31          4.3770    10.6050    -2.0680 h1         1 BEP       0.058700
     32 H32          2.6630    10.9280    -1.9160 h1         1 BEP       0.058700
     33 H41          2.2150    14.3470    -0.3290 h1         1 BEP       0.046200
     34 H42          3.9750    14.1740    -0.4740 h1         1 BEP       0.046200
     35 H51          4.0100    15.8300    -2.2950 hc         1 BEP       0.044700
     36 H61          1.9660    17.1090    -2.9060 hc         1 BEP       0.036200
     37 H62          1.7610    15.3930    -3.2810 hc         1 BEP       0.036200
     38 H63          0.9950    16.0810    -1.8440 hc         1 BEP       0.036200
     39 H71          3.4460    17.8170    -0.9290 hc         1 BEP       0.036200
     40 H72          2.4850    16.8140     0.1630 hc         1 BEP       0.036200
     41 H73          4.2370    16.5870     0.0640 hc         1 BEP       0.036200
     42 H81          4.6040    13.3990    -5.6630 h1         1 BEP       0.039450
     43 H82          5.9460    13.1970    -4.5210 h1         1 BEP       0.039450
     44 H91          6.2620    12.7240    -7.2090 hc         1 BEP       0.046200
     45 H92          7.1270    11.7590    -6.0170 hc         1 BEP       0.046200
     46 H101         4.9880    10.7930    -7.7980 hc         1 BEP       0.046200
     47 H102         5.9240     9.8720    -6.6270 hc         1 BEP       0.046200
     48 H111         3.8090     9.7810    -5.5150 h1         1 BEP       0.039450
     49 H112         3.2770    11.2990    -6.2410 h1         1 BEP       0.039450
     50 H121         4.2580     7.9310    -4.2840 h1         1 BEP       0.061700
     51 H122         5.2050     9.0540    -3.3530 h1         1 BEP       0.061700
     52 H141         5.7400     6.1600    -3.3800 ha         1 BEP       0.114000
     53 H151         6.0530     4.4840    -1.5960 ha         1 BEP       0.111000
     54 H161         4.9160     4.7690     0.5910 ha         1 BEP       0.111000
     55 H171         3.4680     6.7460     0.9690 ha         1 BEP       0.111000
     56 H181         3.1580     8.4150    -0.8230 ha         1 BEP       0.114000
     57 H201         0.9490    10.8460    -3.1070 ha         1 BEP       0.115000
     58 H211        -1.2940    10.1040    -3.6620 ha         1 BEP       0.105500
     59 H221        -1.7220     7.7690    -4.4090 ha         1 BEP       0.110000
     60 H231         0.1960     6.1910    -4.5630 ha         1 BEP       0.105500
     61 H241         2.4440     6.8990    -3.9820 ha         1 BEP       0.115000
@<TRIPOS>BOND
     1     1     2 1   
     2     1     4 1   
     3     1    28 1   
     4     1    29 1   
     5     2     3 1   
     6     2     5 1   
     7     2    30 1   
     8     3     6 1   
     9     3    31 1   
    10     3    32 1   
    11     4     7 1   
    12     5    11 1   
    13     5    14 1   
    14     6    15 1   
    15     6    22 1   
    16     7     8 1   
    17     7    33 1   
    18     7    34 1   
    19     8     9 1   
    20     8    10 1   
    21     8    35 1   
    22     9    36 1   
    23     9    37 1   
    24     9    38 1   
    25    10    39 1   
    26    10    40 1   
    27    10    41 1   
    28    11    12 1   
    29    11    42 1   
    30    11    43 1   
    31    12    13 1   
    32    12    44 1   
    33    12    45 1   
    34    13    14 1   
    35    13    46 1   
    36    13    47 1   
    37    14    48 1   
    38    14    49 1   
    39    15    16 1   
    40    15    50 1   
    41    15    51 1   
    42    16    17 ar  
    43    16    21 ar  
    44    17    18 ar  
    45    17    52 1   
    46    18    19 ar  
    47    18    53 1   
    48    19    20 ar  
    49    19    54 1   
    50    20    21 ar  
    51    20    55 1   
    52    21    56 1   
    53    22    23 ar  
    54    22    27 ar  
    55    23    24 ar  
    56    23    57 1   
    57    24    25 ar  
    58    24    58 1   
    59    25    26 ar  
    60    25    59 1   
    61    26    27 ar  
    62    26    60 1   
    63    27    61 1   
@<TRIPOS>SUBSTRUCTURE
     1 BEP         1 TEMP              0 ****  ****    0 ROOT
