@<TRIPOS>MOLECULE
BEP
   61    63     1     0     0
SMALL
No Charge or Current Charge


@<TRIPOS>ATOM
      1 C1           4.2640    13.2760    -2.8940 c3         1 BEP       0.148600
      2 C2           4.1330    11.8930    -3.6060 c3         1 BEP       0.162500
      3 C3           4.5200    10.7510    -2.5910 c3         1 BEP       0.242800
      4 O1           3.3620    13.3180    -1.7650 os         1 BEP      -0.468000
      5 N2           4.8890    11.8500    -4.9120 n3         1 BEP      -0.729600
      6 N3           4.0090     9.3750    -2.8760 nh         1 BEP      -0.838400
      7 C4           3.4080    14.5120    -0.9540 c3         1 BEP       0.160600
      8 C5           2.8000    15.7250    -1.7160 c3         1 BEP      -0.097700
      9 C6           1.3680    15.4450    -2.2340 c3         1 BEP      -0.085600
     10 C7           2.8300    16.9940    -0.8340 c3         1 BEP      -0.085600
     11 C8           4.4800    12.8420    -5.9340 c5         1 BEP       0.156300
     12 C9           5.4060    12.4640    -7.1150 c5         1 BEP      -0.079400
     13 C10          5.5220    10.9140    -7.0030 c5         1 BEP      -0.079400
     14 C11          4.8060    10.5760    -5.6670 c5         1 BEP       0.156300
     15 C12          4.9300     8.2360    -2.6410 c3         1 BEP       0.276100
     16 C13          4.3020     7.0800    -1.8630 ca         1 BEP      -0.108300
     17 C14          4.1620     5.8090    -2.4570 ca         1 BEP      -0.103000
     18 C15          3.5810     4.7500    -1.7370 ca         1 BEP      -0.109500
     19 C16          3.1360     4.9540    -0.4200 ca         1 BEP      -0.112000
     20 C17          3.2720     6.2190     0.1770 ca         1 BEP      -0.109500
     21 C18          3.8540     7.2770    -0.5410 ca         1 BEP      -0.103000
     22 C19          2.6620     9.1520    -3.2420 ca         1 BEP       0.337000
     23 C20          1.6190     9.8530    -2.6060 ca         1 BEP      -0.192500
     24 C21          0.2810     9.6330    -2.9740 ca         1 BEP      -0.069000
     25 C22         -0.0240     8.7070    -3.9850 ca         1 BEP      -0.169000
     26 C23          1.0080     8.0020    -4.6260 ca         1 BEP      -0.069000
     27 C24          2.3440     8.2260    -4.2540 ca         1 BEP      -0.192500
     28 H11          5.3030    13.4210    -2.5700 h1         1 BEP       0.032200
     29 H12          4.0120    14.0740    -3.6010 h1         1 BEP       0.032200
     30 H21          3.0650    11.7780    -3.8320 h1         1 BEP       0.046700
     31 H31          5.6170    10.7390    -2.5280 h1         1 BEP       0.058700
     32 H32          4.1690    11.0280    -1.5880 h1         1 BEP       0.058700
     33 H41          2.8320    14.3520    -0.0330 h1         1 BEP       0.046200
     34 H42          4.4420    14.7390    -0.6580 h1         1 BEP       0.046200
     35 H51          3.4330    15.9400    -2.5850 hc         1 BEP       0.044700
     36 H61          0.9680    16.3220    -2.7580 hc         1 BEP       0.036200
     37 H62          1.3600    14.6050    -2.9390 hc         1 BEP       0.036200
     38 H63          0.6930    15.2040    -1.4040 hc         1 BEP       0.036200
     39 H71          2.4560    17.8620    -1.3900 hc         1 BEP       0.036200
     40 H72          2.2070    16.8640     0.0590 hc         1 BEP       0.036200
     41 H73          3.8540    17.2170    -0.5100 hc         1 BEP       0.036200
     42 H81          3.4200    12.7270    -6.2030 h1         1 BEP       0.039450
     43 H82          4.6440    13.8820    -5.6220 h1         1 BEP       0.039450
     44 H91          4.9960    12.7880    -8.0780 hc         1 BEP       0.046200
     45 H92          6.3880    12.9370    -7.0050 hc         1 BEP       0.046200
     46 H101         5.0520    10.3990    -7.8480 hc         1 BEP       0.046200
     47 H102         6.5730    10.6030    -6.9800 hc         1 BEP       0.046200
     48 H111         5.3050     9.7430    -5.1550 h1         1 BEP       0.039450
     49 H112         3.7600    10.2900    -5.8460 h1         1 BEP       0.039450
     50 H121         5.3040     7.8640    -3.6050 h1         1 BEP       0.061700
     51 H122         5.8100     8.5720    -2.0760 h1         1 BEP       0.061700
     52 H141         4.5010     5.6410    -3.4770 ha         1 BEP       0.114000
     53 H151         3.4740     3.7720    -2.2010 ha         1 BEP       0.111000
     54 H161         2.6850     4.1350     0.1360 ha         1 BEP       0.111000
     55 H171         2.9260     6.3790     1.1960 ha         1 BEP       0.111000
     56 H181         3.9520     8.2560    -0.0760 ha         1 BEP       0.114000
     57 H201         1.8440    10.5650    -1.8180 ha         1 BEP       0.115000
     58 H211        -0.5180    10.1780    -2.4750 ha         1 BEP       0.105500
     59 H221        -1.0590     8.5350    -4.2710 ha         1 BEP       0.110000
     60 H231         0.7730     7.2850    -5.4100 ha         1 BEP       0.105500
     61 H241         3.1360     7.6840    -4.7600 ha         1 BEP       0.115000
@<TRIPOS>BOND
     1     1     2 1   
     2     1     4 1   
     3     1    28 1   
     4     1    29 1   
     5     2     3 1   
     6     2     5 1   
     7     2    30 1   
     8     3     6 1   
     9     3    31 1   
    10     3    32 1   
    11     4     7 1   
    12     5    11 1   
    13     5    14 1   
    14     6    15 1   
    15     6    22 1   
    16     7     8 1   
    17     7    33 1   
    18     7    34 1   
    19     8     9 1   
    20     8    10 1   
    21     8    35 1   
    22     9    36 1   
    23     9    37 1   
    24     9    38 1   
    25    10    39 1   
    26    10    40 1   
    27    10    41 1   
    28    11    12 1   
    29    11    42 1   
    30    11    43 1   
    31    12    13 1   
    32    12    44 1   
    33    12    45 1   
    34    13    14 1   
    35    13    46 1   
    36    13    47 1   
    37    14    48 1   
    38    14    49 1   
    39    15    16 1   
    40    15    50 1   
    41    15    51 1   
    42    16    17 ar  
    43    16    21 ar  
    44    17    18 ar  
    45    17    52 1   
    46    18    19 ar  
    47    18    53 1   
    48    19    20 ar  
    49    19    54 1   
    50    20    21 ar  
    51    20    55 1   
    52    21    56 1   
    53    22    23 ar  
    54    22    27 ar  
    55    23    24 ar  
    56    23    57 1   
    57    24    25 ar  
    58    24    58 1   
    59    25    26 ar  
    60    25    59 1   
    61    26    27 ar  
    62    26    60 1   
    63    27    61 1   
@<TRIPOS>SUBSTRUCTURE
     1 BEP         1 TEMP              0 ****  ****    0 ROOT
