@<TRIPOS>MOLECULE
BEQ
   62    61     1     0     0
SMALL
No Charge or Current Charge


@<TRIPOS>ATOM
      1 N1          12.3080    -5.6360     7.1310 n4         1 BEQ      -0.468000
      2 CB          13.1890    -5.3310     8.3480 c3         1 BEQ       0.074400
      3 CG          11.5990    -6.9750     7.3660 c3         1 BEQ       0.074400
      4 CD          13.2030    -5.7470     5.8680 c3         1 BEQ      -0.068400
      5 CE          12.5520    -6.1280     4.5180 c          1 BEQ       0.731000
      6 OE1         12.5420    -7.3090     4.2020 o          1 BEQ      -0.672500
      7 OE2         12.0890    -5.2320     3.8280 o          1 BEQ      -0.672500
      8 C1          11.2470    -4.5380     6.9470 c3         1 BEQ       0.106600
      9 C2          11.7410    -3.0820     6.8120 c3         1 BEQ      -0.125400
     10 C3          10.6010    -2.0930     6.5040 c3         1 BEQ       0.118000
     11 N2           9.9440    -2.3910     5.2290 ns         1 BEQ      -0.522900
     12 C4          10.4600    -2.0770     3.9910 c          1 BEQ       0.611100
     13 O           11.5110    -1.4680     3.8530 o          1 BEQ      -0.599100
     14 C5           9.6280    -2.5640     2.8010 c3         1 BEQ      -0.160400
     15 C6           8.8860    -1.3960     2.1090 c3         1 BEQ      -0.060400
     16 C7           8.0330    -1.8520     0.9050 c3         1 BEQ      -0.076400
     17 C8           7.2910    -0.6870     0.2140 c3         1 BEQ      -0.073400
     18 C9           6.4380    -1.1440    -0.9900 c3         1 BEQ      -0.074400
     19 C10          5.6960     0.0210    -1.6810 c3         1 BEQ      -0.074400
     20 C11          4.8430    -0.4350    -2.8850 c3         1 BEQ      -0.074400
     21 C12          4.1010     0.7300    -3.5750 c3         1 BEQ      -0.074400
     22 C13          3.2470     0.2740    -4.7790 c3         1 BEQ      -0.075400
     23 C14          2.5050     1.4380    -5.4700 c3         1 BEQ      -0.075400
     24 C15          1.6530     0.9830    -6.6710 c3         1 BEQ      -0.088100
     25 HB1         12.5580    -5.2420     9.2350 hx         1 BEQ       0.082200
     26 HB2         13.9050    -6.1440     8.4830 hx         1 BEQ       0.082200
     27 HB3         13.7240    -4.3950     8.1780 hx         1 BEQ       0.082200
     28 HG1         12.3490    -7.7590     7.4870 hx         1 BEQ       0.082200
     29 HG2         10.9890    -6.9050     8.2680 hx         1 BEQ       0.082200
     30 HG3         10.9650    -7.2020     6.5070 hx         1 BEQ       0.082200
     31 HD1         13.7000    -4.7880     5.7210 hx         1 BEQ       0.071700
     32 HD2         13.9650    -6.5010     6.0680 hx         1 BEQ       0.071700
     33 H11         10.5670    -4.5920     7.8010 hx         1 BEQ       0.094200
     34 H12         10.6740    -4.7930     6.0530 hx         1 BEQ       0.094200
     35 H21         12.2300    -2.7730     7.7420 hc         1 BEQ       0.071700
     36 H22         12.4940    -3.0190     6.0180 hc         1 BEQ       0.071700
     37 H31          9.8510    -2.1350     7.3050 h1         1 BEQ       0.053700
     38 H32         11.0000    -1.0710     6.4710 h1         1 BEQ       0.053700
     39 HN2          9.0570    -2.8800     5.2430 hn         1 BEQ       0.312500
     40 H51          8.8870    -3.2980     3.1380 hc         1 BEQ       0.070700
     41 H52         10.3040    -3.0280     2.0730 hc         1 BEQ       0.070700
     42 H61          9.6190    -0.6520     1.7710 hc         1 BEQ       0.053700
     43 H62          8.2390    -0.8960     2.8420 hc         1 BEQ       0.053700
     44 H71          7.3000    -2.5950     1.2440 hc         1 BEQ       0.037200
     45 H72          8.6810    -2.3520     0.1730 hc         1 BEQ       0.037200
     46 H81          6.6440    -0.1880     0.9460 hc         1 BEQ       0.038700
     47 H82          8.0240     0.0560    -0.1250 hc         1 BEQ       0.038700
     48 H91          7.0860    -1.6430    -1.7220 hc         1 BEQ       0.036700
     49 H92          5.7060    -1.8870    -0.6510 hc         1 BEQ       0.036700
     50 H101         6.4290     0.7640    -2.0200 hc         1 BEQ       0.037700
     51 H102         5.0490     0.5200    -0.9490 hc         1 BEQ       0.037700
     52 H111         5.4910    -0.9340    -3.6160 hc         1 BEQ       0.036200
     53 H112         4.1100    -1.1780    -2.5460 hc         1 BEQ       0.036200
     54 H121         3.4530     1.2290    -2.8430 hc         1 BEQ       0.036700
     55 H122         4.8330     1.4730    -3.9140 hc         1 BEQ       0.036700
     56 H131         3.8950    -0.2250    -5.5110 hc         1 BEQ       0.036700
     57 H132         2.5150    -0.4700    -4.4400 hc         1 BEQ       0.036700
     58 H141         1.8550     1.9380    -4.7410 hc         1 BEQ       0.036200
     59 H142         3.2340     2.1830    -5.8120 hc         1 BEQ       0.036200
     60 H151         2.2820     0.5100    -7.4350 hc         1 BEQ       0.030700
     61 H152         1.1470     1.8420    -7.1270 hc         1 BEQ       0.030700
     62 H153         0.8890     0.2630    -6.3540 hc         1 BEQ       0.030700
@<TRIPOS>BOND
     1     1     2 1   
     2     1     3 1   
     3     1     4 1   
     4     1     8 1   
     5     2    25 1   
     6     2    26 1   
     7     2    27 1   
     8     3    28 1   
     9     3    29 1   
    10     3    30 1   
    11     4     5 1   
    12     4    31 1   
    13     4    32 1   
    14     5     6 1   
    15     5     7 1   
    16     8     9 1   
    17     8    33 1   
    18     8    34 1   
    19     9    10 1   
    20     9    35 1   
    21     9    36 1   
    22    10    11 1   
    23    10    37 1   
    24    10    38 1   
    25    11    12 1   
    26    11    39 1   
    27    12    13 2   
    28    12    14 1   
    29    14    15 1   
    30    14    40 1   
    31    14    41 1   
    32    15    16 1   
    33    15    42 1   
    34    15    43 1   
    35    16    17 1   
    36    16    44 1   
    37    16    45 1   
    38    17    18 1   
    39    17    46 1   
    40    17    47 1   
    41    18    19 1   
    42    18    48 1   
    43    18    49 1   
    44    19    20 1   
    45    19    50 1   
    46    19    51 1   
    47    20    21 1   
    48    20    52 1   
    49    20    53 1   
    50    21    22 1   
    51    21    54 1   
    52    21    55 1   
    53    22    23 1   
    54    22    56 1   
    55    22    57 1   
    56    23    24 1   
    57    23    58 1   
    58    23    59 1   
    59    24    60 1   
    60    24    61 1   
    61    24    62 1   
@<TRIPOS>SUBSTRUCTURE
     1 BEQ         1 TEMP              0 ****  ****    0 ROOT
