@<TRIPOS>MOLECULE
BEQ
   62    61     1     0     0
SMALL
abcg2


@<TRIPOS>ATOM
      1 N1          12.4310    -5.5090     6.2080 n4         1 BEQ      -0.468000
      2 CB          13.5800    -5.4990     7.1540 c3         1 BEQ       0.074400
      3 CG          11.9230    -6.9080     6.1140 c3         1 BEQ       0.074400
      4 CD          12.9320    -5.0540     4.8650 c3         1 BEQ      -0.068400
      5 CE          11.9270    -4.9280     3.6920 c          1 BEQ       0.731000
      6 OE1         10.7300    -5.2060     3.8710 o          1 BEQ      -0.672500
      7 OE2         12.4820    -4.5480     2.6520 o          1 BEQ      -0.672500
      8 C1          11.3220    -4.6410     6.7470 c3         1 BEQ       0.106600
      9 C2          11.6830    -3.1780     6.9230 c3         1 BEQ      -0.125400
     10 C3          10.4280    -2.3510     7.2070 c3         1 BEQ       0.118000
     11 N2           9.4390    -2.4260     6.1550 ns         1 BEQ      -0.522900
     12 C4           9.6170    -1.8780     4.9370 c          1 BEQ       0.611100
     13 O           10.5690    -1.1530     4.6810 o          1 BEQ      -0.599100
     14 C5           8.5720    -2.2530     3.9110 c3         1 BEQ      -0.160400
     15 C6           8.4260    -1.2440     2.7820 c3         1 BEQ      -0.060400
     16 C7           7.3740    -1.6730     1.7680 c3         1 BEQ      -0.076400
     17 C8           7.2140    -0.6880     0.6170 c3         1 BEQ      -0.073400
     18 C9           6.1520    -1.1130    -0.3890 c3         1 BEQ      -0.074400
     19 C10          5.9860    -0.1350    -1.5450 c3         1 BEQ      -0.074400
     20 C11          4.9160    -0.5630    -2.5410 c3         1 BEQ      -0.074400
     21 C12          4.7430     0.4100    -3.7020 c3         1 BEQ      -0.074400
     22 C13          3.6650    -0.0200    -4.6880 c3         1 BEQ      -0.075400
     23 C14          3.4890     0.9460    -5.8530 c3         1 BEQ      -0.075400
     24 C15          2.4040     0.5070    -6.8270 c3         1 BEQ      -0.088100
     25 HB1         13.2300    -5.7800     8.1440 hx         1 BEQ       0.082200
     26 HB2         14.3280    -6.2110     6.8140 hx         1 BEQ       0.082200
     27 HB3         14.0210    -4.5080     7.1890 hx         1 BEQ       0.082200
     28 HG1         12.7080    -7.5360     5.6980 hx         1 BEQ       0.082200
     29 HG2         11.6610    -7.2590     7.1090 hx         1 BEQ       0.082200
     30 HG3         11.0540    -6.9290     5.4660 hx         1 BEQ       0.082200
     31 HD1         13.4280    -4.0950     5.0120 hx         1 BEQ       0.071700
     32 HD2         13.7120    -5.7640     4.5830 hx         1 BEQ       0.071700
     33 H11         11.0350    -5.0800     7.7030 hx         1 BEQ       0.094200
     34 H12         10.4990    -4.7540     6.0480 hx         1 BEQ       0.094200
     35 H21         12.3770    -3.0390     7.7530 hc         1 BEQ       0.071700
     36 H22         12.1600    -2.7720     6.0310 hc         1 BEQ       0.071700
     37 H31          9.9500    -2.6920     8.1260 h1         1 BEQ       0.053700
     38 H32         10.7200    -1.3130     7.3700 h1         1 BEQ       0.053700
     39 HN2          8.6480    -3.0320     6.2960 hn         1 BEQ       0.312500
     40 H51          7.6070    -2.4160     4.3990 hc         1 BEQ       0.070700
     41 H52          8.8740    -3.2260     3.5070 hc         1 BEQ       0.070700
     42 H61          9.3860    -1.1130     2.2770 hc         1 BEQ       0.053700
     43 H62          8.1560    -0.2660     3.1920 hc         1 BEQ       0.053700
     44 H71          6.4100    -1.8000     2.2730 hc         1 BEQ       0.037200
     45 H72          7.6370    -2.6590     1.3670 hc         1 BEQ       0.037200
     46 H81          6.9600     0.3000     1.0180 hc         1 BEQ       0.038700
     47 H82          8.1750    -0.5690     0.1040 hc         1 BEQ       0.038700
     48 H91          6.4050    -2.1020    -0.7850 hc         1 BEQ       0.036700
     49 H92          5.1920    -1.2300     0.1270 hc         1 BEQ       0.036700
     50 H101         6.9430    -0.0210    -2.0660 hc         1 BEQ       0.037700
     51 H102         5.7370     0.8570    -1.1490 hc         1 BEQ       0.037700
     52 H111         5.1630    -1.5550    -2.9340 hc         1 BEQ       0.036200
     53 H112         3.9600    -0.6750    -2.0180 hc         1 BEQ       0.036200
     54 H121         4.5010     1.4030    -3.3090 hc         1 BEQ       0.036700
     55 H122         5.6970     0.5170    -4.2300 hc         1 BEQ       0.036700
     56 H131         3.9050    -1.0160    -5.0780 hc         1 BEQ       0.036700
     57 H132         2.7110    -0.1260    -4.1580 hc         1 BEQ       0.036700
     58 H141         3.2510     1.9420    -5.4660 hc         1 BEQ       0.036200
     59 H142         4.4410     1.0480    -6.3840 hc         1 BEQ       0.036200
     60 H151         2.6360    -0.4670    -7.2630 hc         1 BEQ       0.030700
     61 H152         2.2880     1.2160    -7.6470 hc         1 BEQ       0.030700
     62 H153         1.4380     0.4200    -6.3260 hc         1 BEQ       0.030700
@<TRIPOS>BOND
     1     1     2 1   
     2     1     3 1   
     3     1     4 1   
     4     1     8 1   
     5     2    25 1   
     6     2    26 1   
     7     2    27 1   
     8     3    28 1   
     9     3    29 1   
    10     3    30 1   
    11     4     5 1   
    12     4    31 1   
    13     4    32 1   
    14     5     6 1   
    15     5     7 1   
    16     8     9 1   
    17     8    33 1   
    18     8    34 1   
    19     9    10 1   
    20     9    35 1   
    21     9    36 1   
    22    10    11 1   
    23    10    37 1   
    24    10    38 1   
    25    11    12 1   
    26    11    39 1   
    27    12    13 2   
    28    12    14 1   
    29    14    15 1   
    30    14    40 1   
    31    14    41 1   
    32    15    16 1   
    33    15    42 1   
    34    15    43 1   
    35    16    17 1   
    36    16    44 1   
    37    16    45 1   
    38    17    18 1   
    39    17    46 1   
    40    17    47 1   
    41    18    19 1   
    42    18    48 1   
    43    18    49 1   
    44    19    20 1   
    45    19    50 1   
    46    19    51 1   
    47    20    21 1   
    48    20    52 1   
    49    20    53 1   
    50    21    22 1   
    51    21    54 1   
    52    21    55 1   
    53    22    23 1   
    54    22    56 1   
    55    22    57 1   
    56    23    24 1   
    57    23    58 1   
    58    23    59 1   
    59    24    60 1   
    60    24    61 1   
    61    24    62 1   
@<TRIPOS>SUBSTRUCTURE
     1 BEQ         1 TEMP              0 ****  ****    0 ROOT
