@<TRIPOS>MOLECULE
BER
   43    47     1     0     0
SMALL
bcc


@<TRIPOS>ATOM
      1 C1          -0.6410    -0.0810    -0.0010 ca         1 BER       0.032700
      2 C2          -2.1040    -0.1060     0.0110 ca         1 BER      -0.094000
      3 N1           0.0330    -1.2820    -0.0580 na         1 BER       0.037900
      4 C3           0.1010     1.0660     0.0790 ca         1 BER      -0.096000
      5 C4          -2.7650    -1.2590     0.4380 ca         1 BER      -0.055300
      6 C5          -2.8260     1.0480    -0.3560 ca         1 BER      -0.083000
      7 C6           1.3490    -1.3590    -0.0500 ca         1 BER       0.033700
      8 C7          -0.7560    -2.5230    -0.1620 c6         1 BER       0.008300
      9 C8           1.5050     1.0400     0.0800 ca         1 BER      -0.004000
     10 C9          -4.1590    -1.2920     0.5370 ca         1 BER      -0.110000
     11 C10         -1.9350    -2.4580     0.7780 c6         1 BER      -0.053100
     12 C11         -4.1860     0.9900    -0.2490 ca         1 BER       0.063100
     13 C12          2.1540    -0.2190     0.0060 ca         1 BER      -0.081000
     14 C13          2.2980     2.1960     0.1630 ca         1 BER      -0.092000
     15 C14         -4.8420    -0.1530     0.1940 ca         1 BER       0.107100
     16 O1          -5.1010     1.9330    -0.5690 os         1 BER      -0.304900
     17 C15          3.5610    -0.3150     0.0250 ca         1 BER       0.093100
     18 C16          3.6630     2.0940     0.1790 ca         1 BER      -0.127000
     19 O2          -6.1710     0.0570     0.1720 os         1 BER      -0.297900
     20 C17         -6.3530     1.4420    -0.1110 c5         1 BER       0.323200
     21 C18          4.3170     0.8410     0.1090 ca         1 BER       0.152100
     22 O3           4.1370    -1.5340    -0.0160 os         1 BER      -0.322900
     23 O4           5.6430     0.6910     0.1290 os         1 BER      -0.286900
     24 C19          4.6330    -1.9320    -1.2960 c3         1 BER       0.118700
     25 C20          6.4690     1.8330     0.2860 c3         1 BER       0.113700
     26 H31         -0.4030     2.0180     0.1700 ha         1 BER       0.180000
     27 H51         -2.3360     1.9360    -0.7300 ha         1 BER       0.161000
     28 H61          1.7710    -2.3530    -0.0870 h4         1 BER       0.201000
     29 H71         -0.0970    -3.3560     0.0670 h1         1 BER       0.093700
     30 H72         -1.0880    -2.6160    -1.1980 h1         1 BER       0.093700
     31 H91         -4.6710    -2.1880     0.8640 ha         1 BER       0.172000
     32 H101        -1.5870    -2.4170     1.8150 hc         1 BER       0.091200
     33 H102        -2.5150    -3.3750     0.6720 hc         1 BER       0.091200
     34 H131         1.8290     3.1690     0.2210 ha         1 BER       0.164000
     35 H161         4.2480     3.0020     0.2460 ha         1 BER       0.165000
     36 H171        -6.6490     1.9680     0.8030 h2         1 BER       0.086700
     37 H172        -7.1060     1.5640    -0.8880 h2         1 BER       0.086700
     38 H191         4.9920    -2.9530    -1.1890 h1         1 BER       0.051700
     39 H192         3.8410    -1.9110    -2.0490 h1         1 BER       0.051700
     40 H193         5.4570    -1.2980    -1.6260 h1         1 BER       0.051700
     41 H201         7.4920     1.4680     0.2940 h1         1 BER       0.060367
     42 H202         6.3510     2.5350    -0.5420 h1         1 BER       0.060367
     43 H203         6.2690     2.3500     1.2260 h1         1 BER       0.060367
@<TRIPOS>BOND
     1     1     2 1   
     2     1     3 1   
     3     1     4 ar  
     4     2     5 ar  
     5     2     6 ar  
     6     3     7 2   
     7     3     8 1   
     8     4     9 ar  
     9     4    26 1   
    10     5    10 ar  
    11     5    11 1   
    12     6    12 ar  
    13     6    27 1   
    14     7    13 ar  
    15     7    28 1   
    16     8    11 1   
    17     8    29 1   
    18     8    30 1   
    19     9    13 ar  
    20     9    14 ar  
    21    10    15 ar  
    22    10    31 1   
    23    11    32 1   
    24    11    33 1   
    25    12    15 ar  
    26    12    16 1   
    27    13    17 ar  
    28    14    18 ar  
    29    14    34 1   
    30    15    19 1   
    31    16    20 1   
    32    17    21 ar  
    33    17    22 1   
    34    18    21 ar  
    35    18    35 1   
    36    19    20 1   
    37    20    36 1   
    38    20    37 1   
    39    21    23 1   
    40    22    24 1   
    41    23    25 1   
    42    24    38 1   
    43    24    39 1   
    44    24    40 1   
    45    25    41 1   
    46    25    42 1   
    47    25    43 1   
@<TRIPOS>SUBSTRUCTURE
     1 BER         1 TEMP              0 ****  ****    0 ROOT
