@<TRIPOS>MOLECULE
BER
   43    47     1     0     0
SMALL
No Charge or Current Charge


@<TRIPOS>ATOM
      1 C1          -0.7620    -0.1290    -0.0400 ca         1 BER      -0.018000
      2 C2          -2.1870    -0.0780     0.0980 ca         1 BER      -0.094000
      3 N1          -0.1120    -1.3770    -0.1300 na         1 BER       0.059300
      4 C3           0.0390     1.0420    -0.0900 ca         1 BER      -0.078000
      5 C4          -2.9220    -1.2960     0.2490 ca         1 BER      -0.055300
      6 C5          -2.9140     1.1490     0.1030 ca         1 BER      -0.065000
      7 C6           1.2830    -1.4500    -0.1120 ca         1 BER       0.051700
      8 C7          -0.8840    -2.5770    -0.5080 c6         1 BER       0.037600
      9 C8           1.4440     0.9620    -0.1530 ca         1 BER      -0.004000
     10 C9          -4.3270    -1.2850     0.4030 ca         1 BER      -0.092000
     11 C10         -2.1940    -2.6360     0.2900 c6         1 BER      -0.053100
     12 C11         -4.3060     1.1140     0.2480 ca         1 BER       0.063100
     13 C12          2.0830    -0.2910    -0.1510 ca         1 BER      -0.081000
     14 C13          2.2100     2.1370    -0.1940 ca         1 BER      -0.074000
     15 C14         -4.9870    -0.0570     0.3920 ca         1 BER       0.107100
     16 O1          -5.1260     2.1960     0.2750 os         1 BER      -0.328100
     17 C15          3.4970    -0.3830    -0.1860 ca         1 BER       0.093100
     18 C16          3.6100     2.0670    -0.2340 ca         1 BER      -0.109000
     19 O2          -6.3240     0.1300     0.5320 os         1 BER      -0.321100
     20 C17         -6.4620     1.5890     0.3990 c5         1 BER       0.369600
     21 C18          4.2750     0.8180    -0.2290 ca         1 BER       0.152100
     22 O3           4.0310    -1.6710    -0.1770 os         1 BER      -0.346100
     23 O4           5.6610     0.7650    -0.2670 os         1 BER      -0.310100
     24 C19          5.4350    -1.9870    -0.2070 c3         1 BER       0.141900
     25 C20          6.4960     1.9370    -0.3120 c3         1 BER       0.136900
     26 H31         -0.3990     2.0320    -0.0530 ha         1 BER       0.162000
     27 H51         -2.4480     2.1200    -0.0100 ha         1 BER       0.143000
     28 H61          1.7230    -2.4470    -0.1030 h4         1 BER       0.183000
     29 H71         -0.2960    -3.4880    -0.3300 h1         1 BER       0.093700
     30 H72         -1.1070    -2.5210    -1.5830 h1         1 BER       0.093700
     31 H91         -4.8900    -2.2070     0.5310 ha         1 BER       0.154000
     32 H101        -1.9780    -2.8960     1.3350 hc         1 BER       0.091200
     33 H102        -2.8310    -3.4390    -0.1070 hc         1 BER       0.091200
     34 H131         1.7240     3.1110    -0.1930 ha         1 BER       0.146000
     35 H161         4.1620     3.0020    -0.2650 ha         1 BER       0.147000
     36 H171        -6.9700     1.9930     1.2820 h2         1 BER       0.086700
     37 H172        -7.0440     1.8140    -0.5020 h2         1 BER       0.086700
     38 H191         5.5770    -3.0750    -0.1900 h1         1 BER       0.051700
     39 H192         5.9060    -1.6040    -1.1210 h1         1 BER       0.051700
     40 H193         5.9510    -1.5700     0.6680 h1         1 BER       0.051700
     41 H201         7.5540     1.6480    -0.3360 h1         1 BER       0.060367
     42 H202         6.2890     2.5320    -1.2100 h1         1 BER       0.060367
     43 H203         6.3390     2.5650     0.5740 h1         1 BER       0.060367
@<TRIPOS>BOND
     1     1     2 1   
     2     1     3 1   
     3     1     4 ar  
     4     2     5 ar  
     5     2     6 ar  
     6     3     7 2   
     7     3     8 1   
     8     4     9 ar  
     9     4    26 1   
    10     5    10 ar  
    11     5    11 1   
    12     6    12 ar  
    13     6    27 1   
    14     7    13 ar  
    15     7    28 1   
    16     8    11 1   
    17     8    29 1   
    18     8    30 1   
    19     9    13 ar  
    20     9    14 ar  
    21    10    15 ar  
    22    10    31 1   
    23    11    32 1   
    24    11    33 1   
    25    12    15 ar  
    26    12    16 1   
    27    13    17 ar  
    28    14    18 ar  
    29    14    34 1   
    30    15    19 1   
    31    16    20 1   
    32    17    21 ar  
    33    17    22 1   
    34    18    21 ar  
    35    18    35 1   
    36    19    20 1   
    37    20    36 1   
    38    20    37 1   
    39    21    23 1   
    40    22    24 1   
    41    23    25 1   
    42    24    38 1   
    43    24    39 1   
    44    24    40 1   
    45    25    41 1   
    46    25    42 1   
    47    25    43 1   
@<TRIPOS>SUBSTRUCTURE
     1 BER         1 TEMP              0 ****  ****    0 ROOT
