@<TRIPOS>MOLECULE
BES
   45    45     1     0     0
SMALL
No Charge or Current Charge


@<TRIPOS>ATOM
      1 N2           1.3350    -1.2310    -1.7290 n8         1 BES      -1.024200
      2 C1           0.5820     0.0340    -1.5400 c3         1 BES       0.172500
      3 C6           0.6290     0.9060    -2.8250 c3         1 BES      -0.026100
      4 C7          -0.0310     0.2540    -4.0380 ca         1 BES      -0.048300
      5 C8          -1.4320     0.1090    -4.0900 ca         1 BES      -0.097500
      6 C12          0.7480    -0.1910    -5.1260 ca         1 BES      -0.097500
      7 C9          -2.0450    -0.4790    -5.2110 ca         1 BES      -0.117000
      8 C11          0.1350    -0.7780    -6.2460 ca         1 BES      -0.117000
      9 C10         -1.2620    -0.9230    -6.2890 ca         1 BES      -0.124000
     10 C2           1.0820     0.8160    -0.2830 c3         1 BES       0.039300
     11 O2           2.5360     0.9110    -0.2690 oh         1 BES      -0.678000
     12 C3           0.5360     0.1650     1.0230 c          1 BES       0.557100
     13 O3           1.0790    -0.8040     1.5420 o          1 BES      -0.635100
     14 N1          -0.5650     0.7890     1.5780 ns         1 BES      -0.438900
     15 C4          -1.2390     0.3960     2.8410 c3         1 BES      -0.044300
     16 C13         -0.8490     1.3330     4.0180 c3         1 BES      -0.071400
     17 C14          0.6390     1.2830     4.4670 c3         1 BES      -0.063700
     18 C15          0.9520     2.4200     5.4660 c3         1 BES      -0.084100
     19 C16          1.0360    -0.0890     5.0640 c3         1 BES      -0.084100
     20 C5          -2.7850     0.3690     2.6340 c          1 BES       0.718000
     21 O1          -3.3240     1.3490     2.1340 o          1 BES      -0.721000
     22 O4          -3.3850    -0.6620     2.9020 o          1 BES      -0.721000
     23 HN21         2.3260    -0.9830    -1.8340 hn         1 BES       0.431500
     24 HN22         1.3270    -1.7500    -0.8430 hn         1 BES       0.431500
     25 H1          -0.4720    -0.2290    -1.3650 h1         1 BES       0.054700
     26 H61          0.1240     1.8580    -2.6210 hc         1 BES       0.046200
     27 H62          1.6710     1.1660    -3.0480 hc         1 BES       0.046200
     28 H8          -2.0470     0.4540    -3.2620 ha         1 BES       0.109500
     29 H12          1.8300    -0.0840    -5.1020 ha         1 BES       0.109500
     30 H9          -3.1270    -0.5880    -5.2430 ha         1 BES       0.100500
     31 H11          0.7420    -1.1210    -7.0810 ha         1 BES       0.100500
     32 H10         -1.7360    -1.3770    -7.1560 ha         1 BES       0.098000
     33 H2           0.6550     1.8280    -0.3250 h1         1 BES       0.047700
     34 HO2          2.8550     0.2300     0.3680 ho         1 BES       0.475000
     35 HN          -0.9450     1.5810     1.0720 hn         1 BES       0.299500
     36 H4          -0.9470    -0.6310     3.0920 h1         1 BES       0.066700
     37 H131        -1.4820     1.0910     4.8810 hc         1 BES       0.051200
     38 H132        -1.1040     2.3630     3.7350 hc         1 BES       0.051200
     39 H14          1.2670     1.4550     3.5850 hc         1 BES       0.030700
     40 H151         2.0120     2.4090     5.7460 hc         1 BES       0.025367
     41 H152         0.7310     3.3980     5.0230 hc         1 BES       0.025367
     42 H153         0.3550     2.3130     6.3800 hc         1 BES       0.025367
     43 H161         0.4210    -0.3240     5.9420 hc         1 BES       0.025367
     44 H162         0.9130    -0.8950     4.3330 hc         1 BES       0.025367
     45 H163         2.0870    -0.0830     5.3760 hc         1 BES       0.025367
@<TRIPOS>BOND
     1     1     2 1   
     2     1    23 1   
     3     1    24 1   
     4     2     3 1   
     5     2    10 1   
     6     2    25 1   
     7     3     4 1   
     8     3    26 1   
     9     3    27 1   
    10     4     5 ar  
    11     4     6 ar  
    12     5     7 ar  
    13     5    28 1   
    14     6     8 ar  
    15     6    29 1   
    16     7     9 ar  
    17     7    30 1   
    18     8     9 ar  
    19     8    31 1   
    20     9    32 1   
    21    10    11 1   
    22    10    12 1   
    23    10    33 1   
    24    11    34 1   
    25    12    13 2   
    26    12    14 1   
    27    14    15 1   
    28    14    35 1   
    29    15    16 1   
    30    15    20 1   
    31    15    36 1   
    32    16    17 1   
    33    16    37 1   
    34    16    38 1   
    35    17    18 1   
    36    17    19 1   
    37    17    39 1   
    38    18    40 1   
    39    18    41 1   
    40    18    42 1   
    41    19    43 1   
    42    19    44 1   
    43    19    45 1   
    44    20    21 1   
    45    20    22 1   
@<TRIPOS>SUBSTRUCTURE
     1 BES         1 TEMP              0 ****  ****    0 ROOT
