@<TRIPOS>MOLECULE
BES
   45    45     1     0     0
SMALL
abcg2


@<TRIPOS>ATOM
      1 N2           0.2650    -1.4410    -1.4490 n8         1 BES      -1.024200
      2 C1           0.8270    -0.1160    -1.3090 c3         1 BES       0.172500
      3 C6           1.3650     0.3910    -2.6530 c3         1 BES      -0.026100
      4 C7           0.2880     0.5440    -3.6860 ca         1 BES      -0.048300
      5 C8          -0.4120     1.7440    -3.7990 ca         1 BES      -0.097500
      6 C12         -0.0510    -0.5010    -4.5420 ca         1 BES      -0.097500
      7 C9          -1.4210     1.9000    -4.7400 ca         1 BES      -0.117000
      8 C11         -1.0560    -0.3510    -5.4870 ca         1 BES      -0.117000
      9 C10         -1.7470     0.8500    -5.5900 ca         1 BES      -0.124000
     10 C2           1.9280    -0.0020    -0.2330 c3         1 BES       0.039300
     11 O2           3.0830    -0.6930    -0.6170 oh         1 BES      -0.678000
     12 C3           1.4430    -0.5780     1.0980 c          1 BES       0.557100
     13 O3           2.0340    -1.5380     1.5850 o          1 BES      -0.635100
     14 N1           0.3970     0.0170     1.6650 ns         1 BES      -0.438900
     15 C4          -0.2860    -0.5320     2.8150 c3         1 BES      -0.044300
     16 C13         -1.0850     0.5630     3.5200 c3         1 BES      -0.071400
     17 C14         -0.2900     1.8140     3.9000 c3         1 BES      -0.063700
     18 C15         -1.2060     2.8080     4.6070 c3         1 BES      -0.084100
     19 C16          0.9180     1.4880     4.7710 c3         1 BES      -0.084100
     20 C5          -1.1940    -1.7380     2.4560 c          1 BES       0.718000
     21 O1          -1.3130    -2.0530     1.2570 o          1 BES      -0.721000
     22 O4          -1.7370    -2.2890     3.4310 o          1 BES      -0.721000
     23 HN21         1.0040    -2.1190    -1.5960 hn         1 BES       0.431500
     24 HN22        -0.2280    -1.7040    -0.6000 hn         1 BES       0.431500
     25 H1           0.0120     0.5560    -1.0120 h1         1 BES       0.054700
     26 H61          1.8550     1.3560    -2.4970 hc         1 BES       0.046200
     27 H62          2.1350    -0.2960    -3.0130 hc         1 BES       0.046200
     28 H8          -0.1580     2.5690    -3.1430 ha         1 BES       0.109500
     29 H12          0.4850    -1.4410    -4.4740 ha         1 BES       0.109500
     30 H9          -1.9490     2.8420    -4.8140 ha         1 BES       0.100500
     31 H11         -1.3010    -1.1740    -6.1480 ha         1 BES       0.100500
     32 H10         -2.5290     0.9680    -6.3290 ha         1 BES       0.098000
     33 H2           2.1590     1.0630    -0.0840 h1         1 BES       0.047700
     34 HO2          3.2030    -1.3910     0.0460 ho         1 BES       0.475000
     35 HN          -0.0700     0.7480     1.1490 hn         1 BES       0.299500
     36 H4           0.4780    -0.9020     3.5030 h1         1 BES       0.066700
     37 H131        -1.5190     0.1270     4.4230 hc         1 BES       0.051200
     38 H132        -1.9310     0.8610     2.8880 hc         1 BES       0.051200
     39 H14          0.0720     2.2910     2.9820 hc         1 BES       0.030700
     40 H151        -0.6830     3.7410     4.8250 hc         1 BES       0.025367
     41 H152        -2.0820     3.0510     4.0020 hc         1 BES       0.025367
     42 H153        -1.5630     2.4000     5.5560 hc         1 BES       0.025367
     43 H161         0.6130     0.9510     5.6730 hc         1 BES       0.025367
     44 H162         1.6510     0.8740     4.2480 hc         1 BES       0.025367
     45 H163         1.4250     2.4010     5.0890 hc         1 BES       0.025367
@<TRIPOS>BOND
     1     1     2 1   
     2     1    23 1   
     3     1    24 1   
     4     2     3 1   
     5     2    10 1   
     6     2    25 1   
     7     3     4 1   
     8     3    26 1   
     9     3    27 1   
    10     4     5 ar  
    11     4     6 ar  
    12     5     7 ar  
    13     5    28 1   
    14     6     8 ar  
    15     6    29 1   
    16     7     9 ar  
    17     7    30 1   
    18     8     9 ar  
    19     8    31 1   
    20     9    32 1   
    21    10    11 1   
    22    10    12 1   
    23    10    33 1   
    24    11    34 1   
    25    12    13 2   
    26    12    14 1   
    27    14    15 1   
    28    14    35 1   
    29    15    16 1   
    30    15    20 1   
    31    15    36 1   
    32    16    17 1   
    33    16    37 1   
    34    16    38 1   
    35    17    18 1   
    36    17    19 1   
    37    17    39 1   
    38    18    40 1   
    39    18    41 1   
    40    18    42 1   
    41    19    43 1   
    42    19    44 1   
    43    19    45 1   
    44    20    21 1   
    45    20    22 1   
@<TRIPOS>SUBSTRUCTURE
     1 BES         1 TEMP              0 ****  ****    0 ROOT
