@<TRIPOS>MOLECULE
BET
   19    18     1     0     0
SMALL
No Charge or Current Charge


@<TRIPOS>ATOM
      1 N           -1.0920    -0.0680     0.0280 n4         1 BET      -0.466000
      2 CA           0.2010    -0.8530    -0.3030 c3         1 BET      -0.067400
      3 C            1.5630    -0.1240    -0.2290 c          1 BET       0.726000
      4 O1           1.9760     0.4230    -1.2420 o          1 BET      -0.666500
      5 O2           2.1640    -0.1400     0.8350 o          1 BET      -0.666500
      6 C1          -1.2500     1.1100    -0.9410 c3         1 BET       0.078900
      7 C2          -1.0310     0.4570     1.4670 c3         1 BET       0.078900
      8 C3          -2.2960    -1.0040    -0.1170 c3         1 BET       0.078900
      9 HA1          0.2620    -1.7000     0.3820 hx         1 BET       0.069700
     10 HA2          0.1070    -1.2380    -1.3190 hx         1 BET       0.069700
     11 H11         -0.3970     1.7820    -0.8320 hx         1 BET       0.085256
     12 H12         -1.2900     0.7300    -1.9640 hx         1 BET       0.085256
     13 H13         -2.1730     1.6460    -0.7100 hx         1 BET       0.085256
     14 H21         -1.9550     0.9940     1.6940 hx         1 BET       0.085256
     15 H22         -0.9160    -0.3860     2.1510 hx         1 BET       0.085256
     16 H23         -0.1790     1.1310     1.5680 hx         1 BET       0.085256
     17 H31         -2.3390    -1.3760    -1.1420 hx         1 BET       0.085256
     18 H32         -2.1830    -1.8410     0.5740 hx         1 BET       0.085256
     19 H33         -3.2100    -0.4530     0.1150 hx         1 BET       0.085256
@<TRIPOS>BOND
     1     1     2 1   
     2     1     6 1   
     3     1     7 1   
     4     1     8 1   
     5     2     3 1   
     6     2     9 1   
     7     2    10 1   
     8     3     4 1   
     9     3     5 1   
    10     6    11 1   
    11     6    12 1   
    12     6    13 1   
    13     7    14 1   
    14     7    15 1   
    15     7    16 1   
    16     8    17 1   
    17     8    18 1   
    18     8    19 1   
@<TRIPOS>SUBSTRUCTURE
     1 BET         1 TEMP              0 ****  ****    0 ROOT
