@<TRIPOS>MOLECULE
BET
   19    18     1     0     0
SMALL
bcc


@<TRIPOS>ATOM
      1 N           -1.0670    -0.0420     0.0060 n4         1 BET      -0.578800
      2 CA           0.1840    -0.8730    -0.0810 c3         1 BET      -0.039200
      3 C            1.5580    -0.1590    -0.0440 c          1 BET       0.936600
      4 O1           1.6120     1.0770     0.0550 o          1 BET      -0.771800
      5 O2           2.4950    -0.9660    -0.1240 o          1 BET      -0.771800
      6 C1          -1.1640     0.8970    -1.1450 c3         1 BET       0.107100
      7 C2          -1.1220     0.7110     1.2900 c3         1 BET       0.107100
      8 C3          -2.2350    -0.9670    -0.0420 c3         1 BET       0.107100
      9 HA1          0.1350    -1.5860     0.7430 hx         1 BET       0.069700
     10 HA2          0.1090    -1.4430    -1.0090 hx         1 BET       0.069700
     11 H11         -0.3360     1.5930    -1.1060 hx         1 BET       0.085256
     12 H12         -1.1300     0.3230    -2.0680 hx         1 BET       0.085256
     13 H13         -2.1100     1.4300    -1.0850 hx         1 BET       0.085256
     14 H21         -2.0740     1.2330     1.3490 hx         1 BET       0.085256
     15 H22         -1.0430     0.0050     2.1130 hx         1 BET       0.085256
     16 H23         -0.3030     1.4180     1.3260 hx         1 BET       0.085256
     17 H31         -2.2120    -1.5290    -0.9720 hx         1 BET       0.085256
     18 H32         -2.1870    -1.6480     0.8020 hx         1 BET       0.085256
     19 H33         -3.1510    -0.3840     0.0070 hx         1 BET       0.085256
@<TRIPOS>BOND
     1     1     2 1   
     2     1     6 1   
     3     1     7 1   
     4     1     8 1   
     5     2     3 1   
     6     2     9 1   
     7     2    10 1   
     8     3     4 1   
     9     3     5 1   
    10     6    11 1   
    11     6    12 1   
    12     6    13 1   
    13     7    14 1   
    14     7    15 1   
    15     7    16 1   
    16     8    17 1   
    17     8    18 1   
    18     8    19 1   
@<TRIPOS>SUBSTRUCTURE
     1 BET         1 TEMP              0 ****  ****    0 ROOT
