@<TRIPOS>MOLECULE
BEU
   31    31     1     0     0
SMALL
bcc


@<TRIPOS>ATOM
      1 O           -3.5610    -0.3240    -0.2490 c3         1 BEU       0.026000
      2 O1          -4.0520    -1.6190    -0.0230 oh         1 BEU      -0.324000
      3 O1          -2.0830    -0.2600    -0.0010 c2         1 BEU      -0.129000
      4 O2          -1.3770    -1.2730     0.4940 c2         1 BEU      -0.176000
      5 O3           0.1140    -1.2690     0.7130 c6         1 BEU      -0.025000
      6 O3           0.7660    -2.4940     0.2750 no         1 BEU      -0.303000
      7 O4           0.7720    -0.0690     0.0280 c6         1 BEU       0.045000
      8 O4           2.1260     0.1040     0.4840 n7         1 BEU      -0.356000
      9 O7           3.1980     0.1910    -0.3200 c          1 BEU       0.329000
     10 O4           3.1410     0.0900    -1.5390 o          1 BEU      -0.371000
     11 OM4          4.5090     0.4330     0.3870 c3         1 BEU      -0.246000
     12 O5          -0.0600     1.1870     0.2640 c6         1 BEU       0.021000
     13 O5           0.6380     2.2920    -0.2470 oh         1 BEU      -0.309000
     14 O6          -1.4190     1.0350    -0.4040 c6         1 BEU       0.030000
     15 O2          -2.1960     2.1640    -0.0420 oh         1 BEU      -0.332000
     16 O'C1        -3.7510     0.0040    -1.2830 ho         1 BEU       0.067000
     17 O'C2        -4.0590     0.4110     0.3960 ho         1 BEU       0.067000
     18 O1          -5.0110    -1.5850    -0.0740 ho         1 BEU       0.209000
     19 O2          -1.8770    -2.1970     0.7660 ho         1 BEU       0.145000
     20 O6          -1.2650     1.0250    -1.4930 ho         1 BEU       0.096000
     21 O3           0.2940    -1.1850     1.7930 ho         1 BEU       0.105000
     22 O3N1         0.3970    -3.2770     0.8010 ho         1 BEU       0.139500
     23 O3N2         0.5260    -2.6730    -0.6930 ho         1 BEU       0.139500
     24 O4           0.8130    -0.2610    -1.0480 ho         1 BEU       0.136000
     25 OA           2.2660     0.2160     1.4760 ho         1 BEU       0.221000
     26 O5          -0.2270     1.2970     1.3490 ho         1 BEU       0.083000
     27 OM41         4.4380     0.3930     1.4720 ho         1 BEU       0.097000
     28 OM42         5.2410    -0.3040     0.0590 ho         1 BEU       0.097000
     29 OM43         4.8910     1.4160     0.1060 ho         1 BEU       0.097000
     30 OB           0.0800     3.0680    -0.1270 ho         1 BEU       0.213000
     31 OC          -2.7150     2.4450    -0.8000 ho         1 BEU       0.208000
@<TRIPOS>BOND
     1     1     2 1   
     2     1     3 1   
     3     1    16 1   
     4     1    17 1   
     5     2    18 1   
     6     3     4 2   
     7     3    14 1   
     8     4     5 1   
     9     4    19 1   
    10     5     6 1   
    11     5     7 1   
    12     5    21 1   
    13     6    22 1   
    14     6    23 1   
    15     7     8 1   
    16     7    12 1   
    17     7    24 1   
    18     8     9 1   
    19     8    25 1   
    20     9    10 2   
    21     9    11 1   
    22    11    27 1   
    23    11    28 1   
    24    11    29 1   
    25    12    13 1   
    26    12    14 1   
    27    12    26 1   
    28    13    30 1   
    29    14    15 1   
    30    14    20 1   
    31    15    31 1   
@<TRIPOS>SUBSTRUCTURE
     1 BEU         1 TEMP              0 ****  ****    0 ROOT
