@<TRIPOS>MOLECULE
BEU
   31    31     1     0     0
SMALL
No Charge or Current Charge


@<TRIPOS>ATOM
      1 C           -3.6010    -0.3100    -0.2270 c3         1 BEU       0.203800
      2 O1          -3.8960    -1.5590    -0.8620 oh         1 BEU      -0.659000
      3 C1          -2.1080    -0.2050     0.0640 c2         1 BEU      -0.137400
      4 C2          -1.4200    -1.2000     0.6670 c2         1 BEU      -0.230200
      5 C3           0.0730    -1.1680     0.9370 c6         1 BEU       0.176700
      6 N3           0.6370    -2.5240     0.7730 n8         1 BEU      -0.981200
      7 C4           0.8060    -0.1180     0.0400 c6         1 BEU       0.121700
      8 N4           2.2310     0.0080     0.4220 ns         1 BEU      -0.479900
      9 C7           3.2730     0.2590    -0.4390 c          1 BEU       0.618100
     10 O4           3.1270     0.3520    -1.6500 o          1 BEU      -0.610100
     11 CM4          4.6350     0.3920     0.2320 c3         1 BEU      -0.178100
     12 C5           0.0280     1.2270     0.1670 c6         1 BEU       0.155300
     13 O5           0.7090     2.3300    -0.4620 oh         1 BEU      -0.644000
     14 C6          -1.4100     1.0770    -0.4220 c6         1 BEU       0.168500
     15 O2          -2.1750     2.2490    -0.0870 oh         1 BEU      -0.667000
     16 H'C1        -3.9280     0.5130    -0.8750 h1         1 BEU       0.027700
     17 H'C2        -4.1570    -0.2250     0.7170 h1         1 BEU       0.027700
     18 H1          -4.8670    -1.5800    -1.0080 ho         1 BEU       0.449000
     19 H2          -1.9460    -2.0990     0.9920 ha         1 BEU       0.195000
     20 H6          -1.3120     0.9990    -1.5160 h1         1 BEU       0.056700
     21 H3           0.2230    -0.8800     1.9900 h1         1 BEU       0.065700
     22 H3N1         0.1480    -3.1670     1.4050 hn         1 BEU       0.399500
     23 H3N2         0.3920    -2.8700    -0.1610 hn         1 BEU       0.399500
     24 H4           0.7500    -0.4520    -1.0060 h1         1 BEU       0.096700
     25 HA           2.4710    -0.0880     1.3990 hn         1 BEU       0.307500
     26 H5          -0.0730     1.4440     1.2420 h1         1 BEU       0.043700
     27 HM41         4.8270    -0.5060     0.8310 hc         1 BEU       0.057700
     28 HM42         5.4420     0.5800    -0.4840 hc         1 BEU       0.057700
     29 HM43         4.5800     1.1750     0.9960 hc         1 BEU       0.057700
     30 HB           0.0540     3.0640    -0.4700 ho         1 BEU       0.453000
     31 HC          -2.9550     2.2650    -0.6840 ho         1 BEU       0.448000
@<TRIPOS>BOND
     1     1     2 1   
     2     1     3 1   
     3     1    16 1   
     4     1    17 1   
     5     2    18 1   
     6     3     4 2   
     7     3    14 1   
     8     4     5 1   
     9     4    19 1   
    10     5     6 1   
    11     5     7 1   
    12     5    21 1   
    13     6    22 1   
    14     6    23 1   
    15     7     8 1   
    16     7    12 1   
    17     7    24 1   
    18     8     9 1   
    19     8    25 1   
    20     9    10 2   
    21     9    11 1   
    22    11    27 1   
    23    11    28 1   
    24    11    29 1   
    25    12    13 1   
    26    12    14 1   
    27    12    26 1   
    28    13    30 1   
    29    14    15 1   
    30    14    20 1   
    31    15    31 1   
@<TRIPOS>SUBSTRUCTURE
     1 BEU         1 TEMP              0 ****  ****    0 ROOT
