@<TRIPOS>MOLECULE
BEU
   31    31     1     0     0
SMALL
abcg2


@<TRIPOS>ATOM
      1 C           -3.5610    -0.3240    -0.2490 c3         1 BEU       0.203800
      2 O1          -4.0520    -1.6190    -0.0230 oh         1 BEU      -0.659000
      3 C1          -2.0830    -0.2600    -0.0010 c2         1 BEU      -0.137400
      4 C2          -1.3770    -1.2730     0.4940 c2         1 BEU      -0.230200
      5 C3           0.1140    -1.2690     0.7130 c6         1 BEU       0.176700
      6 N3           0.7660    -2.4940     0.2750 n8         1 BEU      -0.981200
      7 C4           0.7720    -0.0690     0.0280 c6         1 BEU       0.121700
      8 N4           2.1260     0.1040     0.4840 ns         1 BEU      -0.479900
      9 C7           3.1980     0.1910    -0.3200 c          1 BEU       0.618100
     10 O4           3.1410     0.0900    -1.5390 o          1 BEU      -0.610100
     11 CM4          4.5090     0.4330     0.3870 c3         1 BEU      -0.178100
     12 C5          -0.0600     1.1870     0.2640 c6         1 BEU       0.155300
     13 O5           0.6380     2.2920    -0.2470 oh         1 BEU      -0.644000
     14 C6          -1.4190     1.0350    -0.4040 c6         1 BEU       0.168500
     15 O2          -2.1960     2.1640    -0.0420 oh         1 BEU      -0.667000
     16 H'C1        -3.7510     0.0040    -1.2830 h1         1 BEU       0.027700
     17 H'C2        -4.0590     0.4110     0.3960 h1         1 BEU       0.027700
     18 H1          -5.0110    -1.5850    -0.0740 ho         1 BEU       0.449000
     19 H2          -1.8770    -2.1970     0.7660 ha         1 BEU       0.195000
     20 H6          -1.2650     1.0250    -1.4930 h1         1 BEU       0.056700
     21 H3           0.2940    -1.1850     1.7930 h1         1 BEU       0.065700
     22 H3N1         0.3970    -3.2770     0.8010 hn         1 BEU       0.399500
     23 H3N2         0.5260    -2.6730    -0.6930 hn         1 BEU       0.399500
     24 H4           0.8130    -0.2610    -1.0480 h1         1 BEU       0.096700
     25 HA           2.2660     0.2160     1.4760 hn         1 BEU       0.307500
     26 H5          -0.2270     1.2970     1.3490 h1         1 BEU       0.043700
     27 HM41         4.4380     0.3930     1.4720 hc         1 BEU       0.057700
     28 HM42         5.2410    -0.3040     0.0590 hc         1 BEU       0.057700
     29 HM43         4.8910     1.4160     0.1060 hc         1 BEU       0.057700
     30 HB           0.0800     3.0680    -0.1270 ho         1 BEU       0.453000
     31 HC          -2.7150     2.4450    -0.8000 ho         1 BEU       0.448000
@<TRIPOS>BOND
     1     1     2 1   
     2     1     3 1   
     3     1    16 1   
     4     1    17 1   
     5     2    18 1   
     6     3     4 2   
     7     3    14 1   
     8     4     5 1   
     9     4    19 1   
    10     5     6 1   
    11     5     7 1   
    12     5    21 1   
    13     6    22 1   
    14     6    23 1   
    15     7     8 1   
    16     7    12 1   
    17     7    24 1   
    18     8     9 1   
    19     8    25 1   
    20     9    10 2   
    21     9    11 1   
    22    11    27 1   
    23    11    28 1   
    24    11    29 1   
    25    12    13 1   
    26    12    14 1   
    27    12    26 1   
    28    13    30 1   
    29    14    15 1   
    30    14    20 1   
    31    15    31 1   
@<TRIPOS>SUBSTRUCTURE
     1 BEU         1 TEMP              0 ****  ****    0 ROOT
