@<TRIPOS>MOLECULE
BEV
   17    17     1     0     0
SMALL
bcc


@<TRIPOS>ATOM
      1 N1           2.8610    -1.0400    -0.1270 n8         1 BEV      -0.870700
      2 C6          -0.7370    -0.5080     0.1940 c2         1 BEV       0.794100
      3 C8          -3.0560    -0.8810    -0.1580 c5         1 BEV       0.215800
      4 S2           1.7410     0.0680     0.3660 sy         1 BEV       1.445300
      5 O3           2.1780     0.5110     1.6800 o          1 BEV      -0.640300
      6 O4           1.5070     1.1150    -0.6300 o          1 BEV      -0.640300
      7 N5           0.4590    -0.9170     0.4880 ne         1 BEV      -0.851300
      8 N7          -1.7890    -1.2900     0.4100 nu         1 BEV      -0.828200
      9 C9          -2.9930     0.6350    -0.2050 c5         1 BEV      -0.051300
     10 S10         -1.2400     1.0340    -0.5090 ss         1 BEV      -0.181300
     11 HN1          3.7970    -0.6490    -0.0770 hn         1 BEV       0.410300
     12 HN1A         2.6820    -1.3820    -1.0650 hn         1 BEV       0.410300
     13 H8          -3.1840    -1.3040    -1.1580 h1         1 BEV       0.067700
     14 H8A         -3.8750    -1.2250     0.4710 h1         1 BEV       0.067700
     15 HN7         -1.6380    -2.2370     0.7230 hn         1 BEV       0.470800
     16 H9          -3.5970     1.0450    -1.0100 h1         1 BEV       0.091200
     17 H9A         -3.2990     1.0840     0.7390 h1         1 BEV       0.091200
@<TRIPOS>BOND
     1     1     4 1   
     2     1    11 1   
     3     1    12 1   
     4     2     7 2   
     5     2     8 1   
     6     2    10 1   
     7     3     8 1   
     8     3     9 1   
     9     3    13 1   
    10     3    14 1   
    11     4     5 2   
    12     4     6 2   
    13     4     7 1   
    14     8    15 1   
    15     9    10 1   
    16     9    16 1   
    17     9    17 1   
@<TRIPOS>SUBSTRUCTURE
     1 BEV         1 TEMP              0 ****  ****    0 ROOT
