@<TRIPOS>MOLECULE
BEV
   17    17     1     0     0
SMALL
No Charge or Current Charge


@<TRIPOS>ATOM
      1 N1           2.7970    -0.9520     0.4510 n8         1 BEV      -0.981100
      2 C6          -0.7020    -0.4180     0.2180 c2         1 BEV       0.794100
      3 C8          -2.8790    -0.8010    -0.4260 c5         1 BEV       0.215800
      4 S2           1.7350     0.1830     0.0940 sy         1 BEV       1.303700
      5 O3           1.7030     1.1040     1.2240 o          1 BEV      -0.569500
      6 O4           2.0350     0.5920    -1.2710 o          1 BEV      -0.569500
      7 N5           0.4930    -0.8430     0.1100 ne         1 BEV      -0.851300
      8 N7          -1.6750    -1.3640     0.2480 nu         1 BEV      -0.883400
      9 C9          -2.9820     0.6110     0.2190 c5         1 BEV      -0.003400
     10 S10         -1.2610     1.2660     0.0990 ss         1 BEV      -0.229200
     11 HN1          3.2400    -1.0350    -0.4580 hn         1 BEV       0.465500
     12 HN1A         2.1130    -1.7060     0.4510 hn         1 BEV       0.465500
     13 H8          -2.7450    -0.7240    -1.5160 h1         1 BEV       0.067700
     14 H8A         -3.7850    -1.3950    -0.2440 h1         1 BEV       0.067700
     15 HN7         -1.3010    -2.2640    -0.0410 hn         1 BEV       0.526000
     16 H9          -3.6930     1.2650    -0.3010 h1         1 BEV       0.091200
     17 H9A         -3.2750     0.5390     1.2740 h1         1 BEV       0.091200
@<TRIPOS>BOND
     1     1     4 1   
     2     1    11 1   
     3     1    12 1   
     4     2     7 2   
     5     2     8 1   
     6     2    10 1   
     7     3     8 1   
     8     3     9 1   
     9     3    13 1   
    10     3    14 1   
    11     4     5 2   
    12     4     6 2   
    13     4     7 1   
    14     8    15 1   
    15     9    10 1   
    16     9    16 1   
    17     9    17 1   
@<TRIPOS>SUBSTRUCTURE
     1 BEV         1 TEMP              0 ****  ****    0 ROOT
