@<TRIPOS>MOLECULE
BEW
   14    14     1     0     0
SMALL
No Charge or Current Charge


@<TRIPOS>ATOM
      1 C4          -2.3620     0.0310     0.0260 ca         1 BEW      -0.118000
      2 C5          -1.9170    -1.3000     0.1050 ca         1 BEW       0.025000
      3 C6          -0.5390    -1.5780     0.0250 ca         1 BEW      -0.122000
      4 N2          -0.0560     0.7910    -0.1610 na         1 BEW       0.193300
      5 O8           0.8560     1.8410    -0.2440 oh         1 BEW      -0.469000
      6 C3          -1.4220     1.0680    -0.1170 ca         1 BEW      -0.046000
      7 C1           0.4000    -0.5330    -0.1210 ca         1 BEW      -0.017300
      8 S7           2.1350    -0.9440    -0.2640 sh         1 BEW       0.084200
      9 H4          -3.4260     0.2560     0.0720 ha         1 BEW       0.186000
     10 H5          -2.6350    -2.1120     0.2150 ha         1 BEW       0.175000
     11 H6          -0.2000    -2.6110     0.0680 ha         1 BEW       0.187000
     12 HO8          0.9920     2.1340     0.6840 ho         1 BEW       0.501000
     13 H3          -1.7260     2.1130    -0.1930 h4         1 BEW       0.197000
     14 HS7          2.5110     0.2340    -0.8100 hs         1 BEW       0.222800
@<TRIPOS>BOND
     1     1     2 ar  
     2     1     6 ar  
     3     1     9 1   
     4     2     3 ar  
     5     2    10 1   
     6     3     7 ar  
     7     3    11 1   
     8     4     5 1   
     9     4     6 1   
    10     4     7 2   
    11     5    12 1   
    12     6    13 1   
    13     7     8 1   
    14     8    14 1   
@<TRIPOS>SUBSTRUCTURE
     1 BEW         1 TEMP              0 ****  ****    0 ROOT
