@<TRIPOS>MOLECULE
BEW
   14    14     1     0     0
SMALL
abcg2


@<TRIPOS>ATOM
      1 C4          -2.3320     0.0420     0.0570 ca         1 BEW      -0.118000
      2 C5          -1.8910    -1.2810     0.0960 ca         1 BEW       0.025000
      3 C6          -0.5480    -1.5620    -0.0120 ca         1 BEW      -0.122000
      4 N2          -0.0990     0.7300    -0.1630 na         1 BEW       0.193300
      5 O8           0.7690     1.7480    -0.3530 oh         1 BEW      -0.469000
      6 C3          -1.4080     1.0370    -0.0840 ca         1 BEW      -0.046000
      7 C1           0.3750    -0.5300    -0.1480 ca         1 BEW      -0.017300
      8 S7           2.0590    -0.9150    -0.2630 sh         1 BEW       0.084200
      9 H4          -3.3780     0.2960     0.1270 ha         1 BEW       0.186000
     10 H5          -2.6000    -2.0890     0.2000 ha         1 BEW       0.175000
     11 H6          -0.1920    -2.5830    -0.0010 ha         1 BEW       0.187000
     12 HO8          0.9750     2.1120     0.5250 ho         1 BEW       0.501000
     13 H3          -1.6510     2.0880    -0.1340 h4         1 BEW       0.197000
     14 HS7          2.5330     0.2970    -0.5630 hs         1 BEW       0.222800
@<TRIPOS>BOND
     1     1     2 ar  
     2     1     6 ar  
     3     1     9 1   
     4     2     3 ar  
     5     2    10 1   
     6     3     7 ar  
     7     3    11 1   
     8     4     5 1   
     9     4     6 1   
    10     4     7 2   
    11     5    12 1   
    12     6    13 1   
    13     7     8 1   
    14     8    14 1   
@<TRIPOS>SUBSTRUCTURE
     1 BEW         1 TEMP              0 ****  ****    0 ROOT
