@<TRIPOS>MOLECULE
BEX
   43    44     1     0     0
SMALL
No Charge or Current Charge


@<TRIPOS>ATOM
      1 C4          16.1760     6.5870    13.9710 ca         1 BEX       0.307000
      2 C5          17.0400     7.6040    14.3930 ca         1 BEX      -0.211000
      3 C6          17.0890     8.8320    13.6950 ca         1 BEX       0.146100
      4 C8          15.5150    10.5410    10.7450 c3         1 BEX       0.146900
      5 C10         18.8190     9.7440    15.2140 c3         1 BEX       0.144900
      6 C20         18.2220     2.7380    11.3930 ca         1 BEX      -0.164000
      7 C21         18.3310     1.6410    10.5220 ca         1 BEX      -0.075500
      8 C22         17.3200     0.6660    10.4960 ca         1 BEX      -0.139000
      9 C24         16.0910     1.8890    12.2080 ca         1 BEX      -0.164000
     10 C1          16.2560     9.0350    12.5670 ca         1 BEX       0.080100
     11 O9          17.9360     9.8570    14.0840 os         1 BEX      -0.328100
     12 N11         16.1430     5.3930    14.6750 nu         1 BEX      -0.953200
     13 C12         16.1010     4.1120    14.1020 c3         1 BEX       0.714700
     14 N13         16.5700     3.4030    15.2140 n7         1 BEX      -0.900300
     15 S14         15.4690     2.6590    16.1170 s6         1 BEX       1.291200
     16 O15         15.4430     3.2360    17.4520 o          1 BEX      -0.560000
     17 O16         14.2750     2.3760    15.3370 o          1 BEX      -0.560000
     18 N17         16.2400     1.2710    16.2440 n8         1 BEX      -1.067100
     19 O18         17.0640     3.9680    13.0710 os         1 BEX      -0.387100
     20 C19         17.1110     2.8670    12.2430 ca         1 BEX       0.133100
     21 C23         16.2000     0.7910    11.3360 ca         1 BEX      -0.075500
     22 C3          15.3450     6.7890    12.8570 ca         1 BEX      -0.161000
     23 C2          15.3810     8.0050    12.1530 ca         1 BEX      -0.133000
     24 H5          17.6680     7.4260    15.2580 ha         1 BEX       0.126000
     25 H8          15.7300    11.5530    10.3790 h1         1 BEX       0.039033
     26 H8A         15.7240     9.8340     9.9330 h1         1 BEX       0.039033
     27 H8B         14.4470    10.4890    10.9930 h1         1 BEX       0.039033
     28 H10         19.3960    10.6690    15.3380 h1         1 BEX       0.042700
     29 H10A        18.2520     9.5710    16.1370 h1         1 BEX       0.042700
     30 H10B        19.5280     8.9180    15.0740 h1         1 BEX       0.042700
     31 H20         19.0050     3.4930    11.4130 ha         1 BEX       0.121000
     32 H21         19.1960     1.5460     9.8690 ha         1 BEX       0.116000
     33 H22         17.4010    -0.1840     9.8220 ha         1 BEX       0.118000
     34 H24         15.2080     1.9630    12.8350 ha         1 BEX       0.121000
     35 HN11        16.7410     5.3540    15.4890 hn         1 BEX       0.493000
     36 H12         15.0720     3.8940    13.7810 h3         1 BEX       0.078700
     37 HN13        16.9770     2.5500    14.8530 hn         1 BEX       0.491000
     38 HN17        16.5160     1.3320    17.2230 hn         1 BEX       0.494000
     39 HN1A        15.4480     0.6340    16.3050 hn         1 BEX       0.494000
     40 H23         15.4150     0.0380    11.3090 ha         1 BEX       0.116000
     41 H3          14.6650     6.0050    12.5350 ha         1 BEX       0.117000
     42 H2          14.7260     8.1270    11.2950 ha         1 BEX       0.118000
     43 O7          16.3230    10.2480    11.8990 os         1 BEX      -0.329100
@<TRIPOS>BOND
     1     1     2 ar  
     2     1    12 1   
     3     1    22 ar  
     4     2     3 ar  
     5     2    24 1   
     6     3    10 ar  
     7     3    11 1   
     8     4    25 1   
     9     4    26 1   
    10     4    27 1   
    11     4    43 1   
    12     5    11 1   
    13     5    28 1   
    14     5    29 1   
    15     5    30 1   
    16     6     7 ar  
    17     6    20 ar  
    18     6    31 1   
    19     7     8 ar  
    20     7    32 1   
    21     8    21 ar  
    22     8    33 1   
    23     9    20 ar  
    24     9    21 ar  
    25     9    34 1   
    26    10    23 ar  
    27    10    43 1   
    28    12    13 1   
    29    12    35 1   
    30    13    14 1   
    31    13    19 1   
    32    13    36 1   
    33    14    15 1   
    34    14    37 1   
    35    15    16 2   
    36    15    17 2   
    37    15    18 1   
    38    18    38 1   
    39    18    39 1   
    40    19    20 1   
    41    21    40 1   
    42    22    23 ar  
    43    22    41 1   
    44    23    42 1   
@<TRIPOS>SUBSTRUCTURE
     1 BEX         1 TEMP              0 ****  ****    0 ROOT
