@<TRIPOS>MOLECULE
BEX
   43    44     1     0     0
SMALL
abcg2


@<TRIPOS>ATOM
      1 C4          16.7830     6.3690    13.9350 ca         1 BEX       0.307000
      2 C5          17.1570     7.6020    14.4910 ca         1 BEX      -0.211000
      3 C6          16.9430     8.7870    13.8070 ca         1 BEX       0.146100
      4 C8          15.5300     9.9870    10.6480 c3         1 BEX       0.146900
      5 C10         17.9050    10.0900    15.5640 c3         1 BEX       0.144900
      6 C20         18.1220     2.7510    11.0340 ca         1 BEX      -0.164000
      7 C21         17.8030     1.9630     9.9380 ca         1 BEX      -0.075500
      8 C22         16.6520     1.1760     9.9440 ca         1 BEX      -0.139000
      9 C24         16.1450     1.9600    12.1770 ca         1 BEX      -0.164000
     10 C1          16.3290     8.7650    12.5340 ca         1 BEX       0.080100
     11 O9          17.2820    10.0140    14.2830 os         1 BEX      -0.328100
     12 N11         17.0000     5.2140    14.7040 nu         1 BEX      -0.953200
     13 C12         16.7350     3.9300    14.1930 c3         1 BEX       0.714700
     14 N13         16.8640     2.9620    15.2810 n7         1 BEX      -0.900300
     15 S14         15.7160     3.0240    16.4910 s6         1 BEX       1.291200
     16 O15         16.2140     3.8640    17.5480 o          1 BEX      -0.560000
     17 O16         14.4310     3.3450    15.9160 o          1 BEX      -0.560000
     18 N17         15.7670     1.4790    17.0010 n8         1 BEX      -1.067100
     19 O18         17.6930     3.5510    13.1950 os         1 BEX      -0.387100
     20 C19         17.2920     2.7510    12.1540 ca         1 BEX       0.133100
     21 C23         15.8310     1.1810    11.0650 ca         1 BEX      -0.075500
     22 C3          16.1950     6.3470    12.6770 ca         1 BEX      -0.161000
     23 C2          15.9640     7.5450    11.9930 ca         1 BEX      -0.133000
     24 H5          17.6110     7.6120    15.4720 ha         1 BEX       0.126000
     25 H8          15.4750    11.0320    10.3510 h1         1 BEX       0.039033
     26 H8A         16.1230     9.4290     9.9190 h1         1 BEX       0.039033
     27 H8B         14.5220     9.5650    10.6930 h1         1 BEX       0.039033
     28 H10         18.0940    11.1460    15.7410 h1         1 BEX       0.042700
     29 H10A        17.2470     9.6980    16.3440 h1         1 BEX       0.042700
     30 H10B        18.8490     9.5400    15.5750 h1         1 BEX       0.042700
     31 H20         19.0070     3.3740    11.0370 ha         1 BEX       0.121000
     32 H21         18.4530     1.9680     9.0720 ha         1 BEX       0.116000
     33 H22         16.4020     0.5660     9.0870 ha         1 BEX       0.118000
     34 H24         15.4980     1.9300    13.0430 ha         1 BEX       0.121000
     35 HN11        17.7790     5.2540    15.3460 hn         1 BEX       0.493000
     36 H12         15.7420     3.9160    13.7410 h3         1 BEX       0.078700
     37 HN13        16.9720     2.0110    14.9470 hn         1 BEX       0.491000
     38 HN17        15.9300     1.3950    17.9970 hn         1 BEX       0.494000
     39 HN1A        15.0060     0.9050    16.6570 hn         1 BEX       0.494000
     40 H23         14.9380     0.5710    11.0870 ha         1 BEX       0.116000
     41 H3          15.9200     5.4190    12.1970 ha         1 BEX       0.117000
     42 H2          15.5040     7.5010    11.0170 ha         1 BEX       0.118000
     43 O7          16.1480     9.9770    11.9310 os         1 BEX      -0.329100
@<TRIPOS>BOND
     1     1     2 ar  
     2     1    12 1   
     3     1    22 ar  
     4     2     3 ar  
     5     2    24 1   
     6     3    10 ar  
     7     3    11 1   
     8     4    25 1   
     9     4    26 1   
    10     4    27 1   
    11     4    43 1   
    12     5    11 1   
    13     5    28 1   
    14     5    29 1   
    15     5    30 1   
    16     6     7 ar  
    17     6    20 ar  
    18     6    31 1   
    19     7     8 ar  
    20     7    32 1   
    21     8    21 ar  
    22     8    33 1   
    23     9    20 ar  
    24     9    21 ar  
    25     9    34 1   
    26    10    23 ar  
    27    10    43 1   
    28    12    13 1   
    29    12    35 1   
    30    13    14 1   
    31    13    19 1   
    32    13    36 1   
    33    14    15 1   
    34    14    37 1   
    35    15    16 2   
    36    15    17 2   
    37    15    18 1   
    38    18    38 1   
    39    18    39 1   
    40    19    20 1   
    41    21    40 1   
    42    22    23 ar  
    43    22    41 1   
    44    23    42 1   
@<TRIPOS>SUBSTRUCTURE
     1 BEX         1 TEMP              0 ****  ****    0 ROOT
