@<TRIPOS>MOLECULE
BEY
   47    48     1     0     0
SMALL
abcg2


@<TRIPOS>ATOM
      1 O3          -0.6200     0.5360     1.4990 o          1 BEY      -0.808000
      2 P           -0.4750     0.2460     0.0150 p5         1 BEY       1.363000
      3 O4          -0.5350    -1.1960    -0.4620 o          1 BEY      -0.808000
      4 C19         -1.7700     1.2580    -0.8600 c3         1 BEY      -0.189500
      5 C18         -3.1810     0.9040    -0.3920 c3         1 BEY      -0.031400
      6 C15         -3.6700    -0.4940    -0.7750 c3         1 BEY      -0.052100
      7 C16         -5.0790    -0.7200    -0.3040 ca         1 BEY      -0.035300
      8 C10         -6.1700    -0.3460    -1.0870 ca         1 BEY      -0.110000
      9 C11         -7.4700    -0.5130    -0.6300 ca         1 BEY      -0.124500
     10 C12         -7.7030    -1.0580     0.6270 ca         1 BEY      -0.145000
     11 C14         -6.6260    -1.4350     1.4180 ca         1 BEY      -0.124500
     12 C13         -5.3280    -1.2670     0.9540 ca         1 BEY      -0.110000
     13 N           -1.5730     2.6980    -0.6640 n8         1 BEY      -1.009200
     14 C17          1.0880     0.9830    -0.6280 c3         1 BEY      -0.401400
     15 C8           2.3320     0.1790    -0.2500 c3         1 BEY      -0.150700
     16 C9           2.6040     0.2430     1.2660 c          1 BEY       0.728000
     17 O2           2.8620     1.3730     1.7320 o          1 BEY      -0.742500
     18 O1           2.5730    -0.8260     1.9070 o          1 BEY      -0.742500
     19 C7           3.5490     0.7110    -1.0230 c3         1 BEY      -0.018100
     20 C1           4.8070    -0.0570    -0.7340 ca         1 BEY      -0.015300
     21 C2           5.0400    -1.2920    -1.3380 ca         1 BEY      -0.096500
     22 C3           6.1860    -2.0230    -1.0560 ca         1 BEY      -0.127000
     23 C4           7.1260    -1.5290    -0.1600 ca         1 BEY      -0.150000
     24 C6           6.9070    -0.3010     0.4490 ca         1 BEY      -0.127000
     25 C5           5.7560     0.4240     0.1650 ca         1 BEY      -0.096500
     26 H19         -1.7010     1.0600    -1.9370 h1         1 BEY       0.035700
     27 H18         -3.2340     1.0180     0.6960 hc         1 BEY       0.030200
     28 H18A        -3.8690     1.6450    -0.8110 hc         1 BEY       0.030200
     29 H15         -3.6200    -0.6070    -1.8620 hc         1 BEY       0.070200
     30 H15A        -3.0090    -1.2490    -0.3520 hc         1 BEY       0.070200
     31 H10         -5.9970     0.0790    -2.0700 ha         1 BEY       0.121000
     32 H11         -8.3040    -0.2220    -1.2570 ha         1 BEY       0.091000
     33 H12         -8.7160    -1.1900     0.9850 ha         1 BEY       0.085000
     34 H14         -6.7980    -1.8650     2.3970 ha         1 BEY       0.091000
     35 H13         -4.4930    -1.5670     1.5780 ha         1 BEY       0.121000
     36 HN          -1.4810     2.8740     0.3320 hn         1 BEY       0.386500
     37 HNA         -0.6880     2.9790    -1.0680 hn         1 BEY       0.386500
     38 H17          1.0050     1.0330    -1.7200 hc         1 BEY       0.018200
     39 H17A         1.2080     2.0110    -0.2750 hc         1 BEY       0.018200
     40 H8           2.1720    -0.8630    -0.5390 hc         1 BEY       0.051700
     41 H7           3.3340     0.6660    -2.0950 hc         1 BEY       0.021200
     42 H7A          3.6940     1.7650    -0.7720 hc         1 BEY       0.021200
     43 H2           4.3140    -1.6870    -2.0410 ha         1 BEY       0.118500
     44 H3           6.3470    -2.9800    -1.5380 ha         1 BEY       0.082000
     45 H4           8.0220    -2.0960     0.0590 ha         1 BEY       0.075000
     46 H6           7.6330     0.0960     1.1480 ha         1 BEY       0.082000
     47 H5           5.5850     1.3770     0.6500 ha         1 BEY       0.118500
@<TRIPOS>BOND
     1     1     2 1   
     2     2     3 1   
     3     2     4 1   
     4     2    14 1   
     5     4     5 1   
     6     4    13 1   
     7     4    26 1   
     8     5     6 1   
     9     5    27 1   
    10     5    28 1   
    11     6     7 1   
    12     6    29 1   
    13     6    30 1   
    14     7     8 ar  
    15     7    12 ar  
    16     8     9 ar  
    17     8    31 1   
    18     9    10 ar  
    19     9    32 1   
    20    10    11 ar  
    21    10    33 1   
    22    11    12 ar  
    23    11    34 1   
    24    12    35 1   
    25    13    36 1   
    26    13    37 1   
    27    14    15 1   
    28    14    38 1   
    29    14    39 1   
    30    15    16 1   
    31    15    19 1   
    32    15    40 1   
    33    16    17 1   
    34    16    18 1   
    35    19    20 1   
    36    19    41 1   
    37    19    42 1   
    38    20    21 ar  
    39    20    25 ar  
    40    21    22 ar  
    41    21    43 1   
    42    22    23 ar  
    43    22    44 1   
    44    23    24 ar  
    45    23    45 1   
    46    24    25 ar  
    47    24    46 1   
    48    25    47 1   
@<TRIPOS>SUBSTRUCTURE
     1 BEY         1 TEMP              0 ****  ****    0 ROOT
