@<TRIPOS>MOLECULE
BEY
   47    48     1     0     0
SMALL
No Charge or Current Charge


@<TRIPOS>ATOM
      1 O3          -0.6510     0.2810     1.5130 o          1 BEY      -0.808000
      2 P           -0.4700     0.1520     0.0320 p5         1 BEY       1.363000
      3 O4          -0.4870    -1.2680    -0.4430 o          1 BEY      -0.808000
      4 C19         -1.7980     1.1980    -0.8980 c3         1 BEY      -0.189500
      5 C18         -3.2430     0.9210    -0.3820 c3         1 BEY      -0.031400
      6 C15         -3.7190    -0.5480    -0.4960 c3         1 BEY      -0.052100
      7 C16         -5.1930    -0.7000    -0.1420 ca         1 BEY      -0.035300
      8 C10         -6.1720    -0.7150    -1.1560 ca         1 BEY      -0.110000
      9 C11         -7.5320    -0.8530    -0.8270 ca         1 BEY      -0.124500
     10 C12         -7.9210    -0.9770     0.5170 ca         1 BEY      -0.145000
     11 C14         -6.9510    -0.9620     1.5320 ca         1 BEY      -0.124500
     12 C13         -5.5910    -0.8230     1.2040 ca         1 BEY      -0.110000
     13 N           -1.6410     2.7040    -1.0820 n8         1 BEY      -1.009200
     14 C17          1.1180     0.9600    -0.4930 c3         1 BEY      -0.401400
     15 C8           2.4320     0.1660    -0.1750 c3         1 BEY      -0.150700
     16 C9           2.6060    -0.1570     1.3410 c          1 BEY       0.728000
     17 O2           2.7500     0.7690     2.1280 o          1 BEY      -0.742500
     18 O1           2.6200    -1.3310     1.6830 o          1 BEY      -0.742500
     19 C7           3.6820     0.8900    -0.7410 c3         1 BEY      -0.018100
     20 C1           4.9530     0.0530    -0.6410 ca         1 BEY      -0.015300
     21 C2           5.1810    -1.0000    -1.5490 ca         1 BEY      -0.096500
     22 C3           6.3540    -1.7700    -1.4630 ca         1 BEY      -0.127000
     23 C4           7.3070    -1.4920    -0.4690 ca         1 BEY      -0.150000
     24 C6           7.0860    -0.4430     0.4380 ca         1 BEY      -0.127000
     25 C5           5.9130     0.3280     0.3530 ca         1 BEY      -0.096500
     26 H19         -1.7370     0.7740    -1.9090 h1         1 BEY       0.035700
     27 H18         -3.3240     1.2410     0.6650 hc         1 BEY       0.030200
     28 H18A        -3.9470     1.5420    -0.9500 hc         1 BEY       0.030200
     29 H15         -3.5370    -0.9080    -1.5160 hc         1 BEY       0.070200
     30 H15A        -3.1230    -1.1860     0.1670 hc         1 BEY       0.070200
     31 H10         -5.8790    -0.6170    -2.1990 ha         1 BEY       0.121000
     32 H11         -8.2830    -0.8630    -1.6140 ha         1 BEY       0.091000
     33 H12         -8.9730    -1.0840     0.7710 ha         1 BEY       0.085000
     34 H14         -7.2510    -1.0560     2.5730 ha         1 BEY       0.091000
     35 H13         -4.8450    -0.8100     1.9960 ha         1 BEY       0.121000
     36 HN          -1.5990     3.1680    -0.1640 hn         1 BEY       0.386500
     37 HNA         -0.7180     2.9100    -1.4910 hn         1 BEY       0.386500
     38 H17          1.0420     1.1210    -1.5750 hc         1 BEY       0.018200
     39 H17A         1.1560     1.9470    -0.0190 hc         1 BEY       0.018200
     40 H8           2.3510    -0.7950    -0.6990 hc         1 BEY       0.051700
     41 H7           3.5020     1.1390    -1.7950 hc         1 BEY       0.021200
     42 H7A          3.8120     1.8500    -0.2260 hc         1 BEY       0.021200
     43 H2           4.4470    -1.2210    -2.3210 ha         1 BEY       0.118500
     44 H3           6.5240    -2.5820    -2.1670 ha         1 BEY       0.082000
     45 H4           8.2140    -2.0870    -0.4030 ha         1 BEY       0.075000
     46 H6           7.8230    -0.2260     1.2080 ha         1 BEY       0.082000
     47 H5           5.7490     1.1370     1.0600 ha         1 BEY       0.118500
@<TRIPOS>BOND
     1     1     2 1   
     2     2     3 1   
     3     2     4 1   
     4     2    14 1   
     5     4     5 1   
     6     4    13 1   
     7     4    26 1   
     8     5     6 1   
     9     5    27 1   
    10     5    28 1   
    11     6     7 1   
    12     6    29 1   
    13     6    30 1   
    14     7     8 ar  
    15     7    12 ar  
    16     8     9 ar  
    17     8    31 1   
    18     9    10 ar  
    19     9    32 1   
    20    10    11 ar  
    21    10    33 1   
    22    11    12 ar  
    23    11    34 1   
    24    12    35 1   
    25    13    36 1   
    26    13    37 1   
    27    14    15 1   
    28    14    38 1   
    29    14    39 1   
    30    15    16 1   
    31    15    19 1   
    32    15    40 1   
    33    16    17 1   
    34    16    18 1   
    35    19    20 1   
    36    19    41 1   
    37    19    42 1   
    38    20    21 ar  
    39    20    25 ar  
    40    21    22 ar  
    41    21    43 1   
    42    22    23 ar  
    43    22    44 1   
    44    23    24 ar  
    45    23    45 1   
    46    24    25 ar  
    47    24    46 1   
    48    25    47 1   
@<TRIPOS>SUBSTRUCTURE
     1 BEY         1 TEMP              0 ****  ****    0 ROOT
