@<TRIPOS>MOLECULE
BEZ
   14    14     1     0     0
SMALL
bcc


@<TRIPOS>ATOM
      1 C           -7.8600   -21.9950    15.0530 c          1 BEZ       0.924200
      2 O1          -8.8400   -22.1200    15.8120 o          1 BEZ      -0.828300
      3 O2          -6.8340   -21.3180    15.2550 o          1 BEZ      -0.828300
      4 C1          -7.9220   -22.7560    13.7300 ca         1 BEZ      -0.135600
      5 C2          -6.8950   -22.6500    12.7940 ca         1 BEZ      -0.106000
      6 C3          -6.9510   -23.3400    11.5900 ca         1 BEZ      -0.167000
      7 C4          -8.0400   -24.1550    11.3040 ca         1 BEZ      -0.162000
      8 C5          -9.0690   -24.2720    12.2300 ca         1 BEZ      -0.167000
      9 C6          -9.0080   -23.5760    13.4300 ca         1 BEZ      -0.106000
     10 H2          -6.0440   -22.0180    13.0120 ha         1 BEZ       0.141000
     11 H3          -6.1450   -23.2420    10.8730 ha         1 BEZ       0.099000
     12 H4          -8.0850   -24.6950    10.3670 ha         1 BEZ       0.096000
     13 H5          -9.9190   -24.9070    12.0160 ha         1 BEZ       0.099000
     14 H6          -9.8130   -23.6720    14.1460 ha         1 BEZ       0.141000
@<TRIPOS>BOND
     1     1     2 1   
     2     1     3 1   
     3     1     4 1   
     4     4     5 ar  
     5     4     9 ar  
     6     5     6 ar  
     7     5    10 1   
     8     6     7 ar  
     9     6    11 1   
    10     7     8 ar  
    11     7    12 1   
    12     8     9 ar  
    13     8    13 1   
    14     9    14 1   
@<TRIPOS>SUBSTRUCTURE
     1 BEZ         1 TEMP              0 ****  ****    0 ROOT
