@<TRIPOS>MOLECULE
BEZ
   14    14     1     0     0
SMALL
No Charge or Current Charge


@<TRIPOS>ATOM
      1 C           -7.8580   -21.9900    15.0620 c          1 BEZ       0.713600
      2 O1          -8.7830   -22.1120    15.8540 o          1 BEZ      -0.723000
      3 O2          -6.8850   -21.2840    15.2850 o          1 BEZ      -0.723000
      4 C1          -7.9220   -22.7490    13.7440 ca         1 BEZ      -0.135600
      5 C2          -6.8770   -22.6420    12.7940 ca         1 BEZ      -0.088000
      6 C3          -6.9380   -23.3440    11.5780 ca         1 BEZ      -0.149000
      7 C4          -8.0400   -24.1630    11.2900 ca         1 BEZ      -0.144000
      8 C5          -9.0830   -24.2810    12.2200 ca         1 BEZ      -0.149000
      9 C6          -9.0270   -23.5800    13.4380 ca         1 BEZ      -0.088000
     10 H2          -6.0130   -22.0120    12.9970 ha         1 BEZ       0.123000
     11 H3          -6.1280   -23.2520    10.8580 ha         1 BEZ       0.081000
     12 H4          -8.0850   -24.7060    10.3480 ha         1 BEZ       0.078000
     13 H5          -9.9380   -24.9150    11.9990 ha         1 BEZ       0.081000
     14 H6          -9.8470   -23.6860    14.1450 ha         1 BEZ       0.123000
@<TRIPOS>BOND
     1     1     2 1   
     2     1     3 1   
     3     1     4 1   
     4     4     5 ar  
     5     4     9 ar  
     6     5     6 ar  
     7     5    10 1   
     8     6     7 ar  
     9     6    11 1   
    10     7     8 ar  
    11     7    12 1   
    12     8     9 ar  
    13     8    13 1   
    14     9    14 1   
@<TRIPOS>SUBSTRUCTURE
     1 BEZ         1 TEMP              0 ****  ****    0 ROOT
