@<TRIPOS>MOLECULE
BF0
   65    70     1     0     0
SMALL
No Charge or Current Charge


@<TRIPOS>ATOM
      1 CBF         -7.7030     1.5530     1.4280 cx         1 BF0      -0.130400
      2 CBG         -6.7140     0.9050     2.3680 cx         1 BF0      -0.130400
      3 CBE         -6.2200     1.7610     1.2220 cx         1 BF0      -0.129700
      4 CBD         -5.5080     1.1510     0.0190 c3         1 BF0       0.209800
      5 NAJ         -4.0290     1.1740     0.1230 n3         1 BF0      -0.756600
      6 CAK         -3.4960     0.2950     1.2140 c6         1 BF0       0.170800
      7 CAL         -1.9510     0.4020     1.3690 c6         1 BF0      -0.065400
      8 CAM         -1.2010     0.2980    -0.0020 c5         1 BF0      -0.046700
      9 CBC         -1.3870    -1.0810    -0.5200 ca         1 BF0      -0.127300
     10 CAN          0.3790     0.2150     0.1120 c5         1 BF0       0.172300
     11 OAA          0.6500    -1.1870     0.4960 os         1 BF0      -0.343100
     12 CAB         -0.3370    -1.8800    -0.1620 ca         1 BF0       0.024100
     13 CAC         -0.3070    -3.2350    -0.5230 ca         1 BF0       0.135100
     14 OAD          0.7600    -4.0160    -0.1900 oh         1 BF0      -0.530100
     15 CAE         -1.3870    -3.7480    -1.2760 ca         1 BF0      -0.118000
     16 CAF         -2.4510    -2.8970    -1.6760 ca         1 BF0      -0.098000
     17 CAG         -2.4480    -1.5360    -1.2990 ca         1 BF0      -0.068300
     18 CAH         -3.5060    -0.5260    -1.7690 c6         1 BF0      -0.044100
     19 CAI         -3.3220     0.9340    -1.1910 c6         1 BF0       0.158500
     20 CAR         -1.8140     1.3400    -0.9910 c6         1 BF0       0.212000
     21 OAS         -1.8430     2.6330    -0.3810 oh         1 BF0      -0.665000
     22 CAQ         -0.9990     1.4220    -2.3110 c6         1 BF0      -0.064400
     23 CAP          0.5050     1.6760    -2.0230 c6         1 BF0      -0.081400
     24 CAO          1.1360     0.4960    -1.2410 c6         1 BF0       0.087700
     25 NAT          2.5730     0.7600    -1.0260 ns         1 BF0      -0.501900
     26 CAU          3.5380    -0.1790    -0.7320 c          1 BF0       0.603100
     27 OAV          3.3220    -1.3820    -0.7570 o          1 BF0      -0.603100
     28 CAW          4.9250     0.3950    -0.4290 c3         1 BF0      -0.153400
     29 CAX          5.2720     0.2840     1.0820 c3         1 BF0      -0.128400
     30 CAY          6.6650     0.8410     1.3840 c          1 BF0       0.589100
     31 OAZ          6.8920     2.0280     1.5770 o          1 BF0      -0.494000
     32 OBA          7.6230    -0.1390     1.3570 os         1 BF0      -0.443100
     33 CBB          8.9890     0.2440     1.6010 c3         1 BF0       0.152900
     34 H1          -8.2320     0.9090     0.7280 hc         1 BF0       0.071450
     35 H2          -8.2850     2.3910     1.8030 hc         1 BF0       0.071450
     36 H3          -6.6280     1.3090     3.3740 hc         1 BF0       0.071450
     37 H4          -6.5780    -0.1720     2.2970 hc         1 BF0       0.071450
     38 H5          -5.8310     2.7450     1.4730 hc         1 BF0       0.087700
     39 H6          -5.8680     0.1230    -0.1220 h1         1 BF0       0.034700
     40 H7          -5.8190     1.7220    -0.8670 h1         1 BF0       0.034700
     41 H9          -3.9510     0.5560     2.1800 h1         1 BF0       0.044200
     42 H10         -3.7630    -0.7540     1.0190 h1         1 BF0       0.044200
     43 H11         -1.6990     1.3470     1.8670 hc         1 BF0       0.057700
     44 H12         -1.6070    -0.3880     2.0510 hc         1 BF0       0.057700
     45 H13          0.7620     0.8980     0.8810 h1         1 BF0       0.085700
     46 H14          1.4330    -3.4170     0.2060 ho         1 BF0       0.479000
     47 H15         -1.3860    -4.7920    -1.5770 ha         1 BF0       0.130000
     48 H16         -3.2590    -3.2920    -2.2870 ha         1 BF0       0.117000
     49 H17         -3.4490    -0.4680    -2.8640 hc         1 BF0       0.055200
     50 H18         -4.5100    -0.9120    -1.5550 hc         1 BF0       0.055200
     51 H19         -3.7460     1.6230    -1.9370 h1         1 BF0       0.066700
     52 H20         -2.7000     2.5710     0.1110 ho         1 BF0       0.473000
     53 H21         -1.1060     0.4970    -2.8930 hc         1 BF0       0.056700
     54 H22         -1.3970     2.2270    -2.9430 hc         1 BF0       0.056700
     55 H23          1.0360     1.8080    -2.9750 hc         1 BF0       0.057200
     56 H24          0.6330     2.6140    -1.4650 hc         1 BF0       0.057200
     57 H25          1.0540    -0.3970    -1.8790 h1         1 BF0       0.094700
     58 H26          2.8770     1.7260    -1.0090 hn         1 BF0       0.311500
     59 H27          5.6690    -0.1740    -0.9990 hc         1 BF0       0.071200
     60 H28          4.9670     1.4520    -0.7190 hc         1 BF0       0.071200
     61 H29          4.5300     0.8430     1.6640 hc         1 BF0       0.089200
     62 H30          5.2500    -0.7790     1.3520 hc         1 BF0       0.089200
     63 H31          9.3330     0.9680     0.8520 h1         1 BF0       0.048367
     64 H32          9.0980     0.6940     2.5970 h1         1 BF0       0.048367
     65 H33          9.6460    -0.6340     1.5520 h1         1 BF0       0.048367
@<TRIPOS>BOND
     1     1     2 1   
     2     1     3 1   
     3     1    34 1   
     4     1    35 1   
     5     2     3 1   
     6     2    36 1   
     7     2    37 1   
     8     3     4 1   
     9     3    38 1   
    10     4     5 1   
    11     4    39 1   
    12     4    40 1   
    13     5     6 1   
    14     5    19 1   
    15     6     7 1   
    16     6    41 1   
    17     6    42 1   
    18     7     8 1   
    19     7    43 1   
    20     7    44 1   
    21     8     9 1   
    22     8    10 1   
    23     8    20 1   
    24     9    12 ar  
    25     9    17 ar  
    26    10    11 1   
    27    10    24 1   
    28    10    45 1   
    29    11    12 1   
    30    12    13 ar  
    31    13    14 1   
    32    13    15 ar  
    33    14    46 1   
    34    15    16 ar  
    35    15    47 1   
    36    16    17 ar  
    37    16    48 1   
    38    17    18 1   
    39    18    19 1   
    40    18    49 1   
    41    18    50 1   
    42    19    20 1   
    43    19    51 1   
    44    20    21 1   
    45    20    22 1   
    46    21    52 1   
    47    22    23 1   
    48    22    53 1   
    49    22    54 1   
    50    23    24 1   
    51    23    55 1   
    52    23    56 1   
    53    24    25 1   
    54    24    57 1   
    55    25    26 1   
    56    25    58 1   
    57    26    27 2   
    58    26    28 1   
    59    28    29 1   
    60    28    59 1   
    61    28    60 1   
    62    29    30 1   
    63    29    61 1   
    64    29    62 1   
    65    30    31 2   
    66    30    32 1   
    67    32    33 1   
    68    33    63 1   
    69    33    64 1   
    70    33    65 1   
@<TRIPOS>SUBSTRUCTURE
     1 BF0         1 TEMP              0 ****  ****    0 ROOT
