@<TRIPOS>MOLECULE
BF0
   65    70     1     0     0
SMALL
bcc


@<TRIPOS>ATOM
      1 CBF         -7.8730     1.4940     0.7110 cx         1 BF0      -0.130400
      2 CBG         -7.0030     1.0630     1.8510 cx         1 BF0      -0.130400
      3 CBE         -6.3980     1.7520     0.6630 cx         1 BF0      -0.129700
      4 CBD         -5.5640     0.9940    -0.3360 c3         1 BF0       0.209800
      5 NAJ         -4.1410     1.0630    -0.0570 n3         1 BF0      -0.756600
      6 CAK         -3.7510     0.3140     1.1290 c6         1 BF0       0.170800
      7 CAL         -2.2910     0.5550     1.4900 c6         1 BF0      -0.065400
      8 CAM         -1.3850     0.3890     0.2610 c5         1 BF0      -0.046700
      9 CBC         -1.4590    -1.0300    -0.1980 ca         1 BF0      -0.127300
     10 CAN          0.1100     0.4310     0.6220 c5         1 BF0       0.149100
     11 OAA          0.3890    -0.9070     1.1170 os         1 BF0      -0.319900
     12 CAB         -0.4310    -1.7270     0.3990 ca         1 BF0       0.024100
     13 CAC         -0.2890    -3.0880     0.1880 ca         1 BF0       0.135100
     14 OAD          0.6980    -3.8460     0.7160 oh         1 BF0      -0.491100
     15 CAE         -1.2380    -3.6890    -0.6490 ca         1 BF0      -0.136000
     16 CAF         -2.2470    -2.9610    -1.2720 ca         1 BF0      -0.116000
     17 CAG         -2.3720    -1.5860    -1.0560 ca         1 BF0      -0.068300
     18 CAH         -3.3260    -0.6560    -1.7540 c6         1 BF0      -0.044100
     19 CAI         -3.2990     0.7950    -1.2230 c6         1 BF0       0.158500
     20 CAR         -1.8910     1.3220    -0.8510 c6         1 BF0       0.188800
     21 OAS         -2.0310     2.6470    -0.3860 oh         1 BF0      -0.602800
     22 CAQ         -0.9110     1.3610    -2.0140 c6         1 BF0      -0.064400
     23 CAP          0.4790     1.7570    -1.5240 c6         1 BF0      -0.081400
     24 CAO          1.0220     0.6820    -0.5850 c6         1 BF0       0.087700
     25 NAT          2.3600     0.9640    -0.1170 ns         1 BF0      -0.568900
     26 CAU          3.4720     0.3720    -0.5880 c          1 BF0       0.670100
     27 OAV          3.4580    -0.4930    -1.4520 o          1 BF0      -0.603100
     28 CAW          4.7570     0.8850     0.0300 c3         1 BF0      -0.153400
     29 CAX          5.8970    -0.1060    -0.1140 c3         1 BF0      -0.128400
     30 CAY          7.1810     0.4000     0.4850 c          1 BF0       0.638100
     31 OAZ          7.3380     1.4850     0.9860 o          1 BF0      -0.543000
     32 OBA          8.1450    -0.5070     0.3930 os         1 BF0      -0.419900
     33 CBB          9.4270    -0.1660     0.9210 c3         1 BF0       0.129700
     34 H1          -8.2720     0.7240     0.0610 hc         1 BF0       0.071450
     35 H2          -8.5370     2.3360     0.8560 hc         1 BF0       0.071450
     36 H3          -7.0670     1.6100     2.7830 hc         1 BF0       0.071450
     37 H4          -6.8150     0.0020     1.9690 hc         1 BF0       0.071450
     38 H5          -6.0860     2.7810     0.8130 hc         1 BF0       0.087700
     39 H6          -5.9280    -0.0460    -0.3890 h1         1 BF0       0.034700
     40 H7          -5.7270     1.4230    -1.3290 h1         1 BF0       0.034700
     41 H9          -4.3730     0.6380     1.9630 h1         1 BF0       0.044200
     42 H10         -3.9370    -0.7640     1.0040 h1         1 BF0       0.044200
     43 H11         -2.1630     1.5580     1.9050 hc         1 BF0       0.057700
     44 H12         -2.0020    -0.1460     2.2760 hc         1 BF0       0.057700
     45 H13          0.3260     1.1330     1.4300 h1         1 BF0       0.085700
     46 H14          1.2900    -3.3080     1.2530 ho         1 BF0       0.440000
     47 H15         -1.1540    -4.7520    -0.8390 ha         1 BF0       0.148000
     48 H16         -2.9260    -3.4770    -1.9400 ha         1 BF0       0.135000
     49 H17         -3.0760    -0.6320    -2.8180 hc         1 BF0       0.055200
     50 H18         -4.3520    -1.0340    -1.7130 hc         1 BF0       0.055200
     51 H19         -3.6820     1.4330    -2.0280 h1         1 BF0       0.066700
     52 H20         -2.9210     2.6790     0.0030 ho         1 BF0       0.434000
     53 H21         -0.8520     0.3810    -2.4980 hc         1 BF0       0.056700
     54 H22         -1.2720     2.0630    -2.7690 hc         1 BF0       0.056700
     55 H23          1.1620     1.8480    -2.3700 hc         1 BF0       0.057200
     56 H24          0.4570     2.7300    -1.0280 hc         1 BF0       0.057200
     57 H25          1.0760    -0.2450    -1.1610 h1         1 BF0       0.094700
     58 H26          2.4650     1.6820     0.5840 hn         1 BF0       0.311500
     59 H27          5.0080     1.8280    -0.4640 hc         1 BF0       0.071200
     60 H28          4.5900     1.1280     1.0810 hc         1 BF0       0.071200
     61 H29          5.6470    -1.0590     0.3600 hc         1 BF0       0.089200
     62 H30          6.0810    -0.3380    -1.1650 hc         1 BF0       0.089200
     63 H31          9.8490     0.7010     0.4140 h1         1 BF0       0.048367
     64 H32          9.3770     0.0340     1.9920 h1         1 BF0       0.048367
     65 H33         10.0620    -1.0300     0.7460 h1         1 BF0       0.048367
@<TRIPOS>BOND
     1     1     2 1   
     2     1     3 1   
     3     1    34 1   
     4     1    35 1   
     5     2     3 1   
     6     2    36 1   
     7     2    37 1   
     8     3     4 1   
     9     3    38 1   
    10     4     5 1   
    11     4    39 1   
    12     4    40 1   
    13     5     6 1   
    14     5    19 1   
    15     6     7 1   
    16     6    41 1   
    17     6    42 1   
    18     7     8 1   
    19     7    43 1   
    20     7    44 1   
    21     8     9 1   
    22     8    10 1   
    23     8    20 1   
    24     9    12 ar  
    25     9    17 ar  
    26    10    11 1   
    27    10    24 1   
    28    10    45 1   
    29    11    12 1   
    30    12    13 ar  
    31    13    14 1   
    32    13    15 ar  
    33    14    46 1   
    34    15    16 ar  
    35    15    47 1   
    36    16    17 ar  
    37    16    48 1   
    38    17    18 1   
    39    18    19 1   
    40    18    49 1   
    41    18    50 1   
    42    19    20 1   
    43    19    51 1   
    44    20    21 1   
    45    20    22 1   
    46    21    52 1   
    47    22    23 1   
    48    22    53 1   
    49    22    54 1   
    50    23    24 1   
    51    23    55 1   
    52    23    56 1   
    53    24    25 1   
    54    24    57 1   
    55    25    26 1   
    56    25    58 1   
    57    26    27 2   
    58    26    28 1   
    59    28    29 1   
    60    28    59 1   
    61    28    60 1   
    62    29    30 1   
    63    29    61 1   
    64    29    62 1   
    65    30    31 2   
    66    30    32 1   
    67    32    33 1   
    68    33    63 1   
    69    33    64 1   
    70    33    65 1   
@<TRIPOS>SUBSTRUCTURE
     1 BF0         1 TEMP              0 ****  ****    0 ROOT
