@<TRIPOS>MOLECULE
BF3
   31    33     1     0     0
SMALL
bcc


@<TRIPOS>ATOM
      1 OAA          0.2930     1.7810     2.2630 o          1 BF3      -0.553500
      2 OAB          0.9120    -2.1770     0.0850 o          1 BF3      -0.593500
      3 OAD          3.6070    -1.5770    -1.2770 oh         1 BF3      -0.462100
      4 CAG         -3.4660    -2.4810    -0.5690 ca         1 BF3      -0.139000
      5 CAH         -3.8900    -1.4160    -1.3500 ca         1 BF3      -0.088000
      6 CAI          4.1330     1.8060    -0.0730 ca         1 BF3      -0.197000
      7 CAJ         -2.5220    -2.2850     0.4280 ca         1 BF3      -0.076000
      8 CAK          3.0050     2.0450     0.7160 ca         1 BF3      -0.048000
      9 CAL         -0.9790    -0.8070     1.7700 c3         1 BF3       0.165300
     10 CAM          4.3270     0.6000    -0.7320 ca         1 BF3       0.127100
     11 CAN          3.3710    -0.4390    -0.6230 ca         1 BF3       0.193100
     12 CAO         -3.3650    -0.1540    -1.1170 ca         1 BF3      -0.028600
     13 CAP         -2.4310     0.0260    -0.1110 ca         1 BF3       0.158900
     14 CAQ         -1.9900    -1.0260     0.6750 ca         1 BF3      -0.144300
     15 CAR          0.8070     0.9570     1.5500 c          1 BF3       0.742100
     16 CAS          1.1170    -1.0440     0.4550 c          1 BF3       0.740100
     17 CAT          2.0830     1.0340     0.8150 ca         1 BF3      -0.144600
     18 CAU          2.2670    -0.1790     0.1560 ca         1 BF3      -0.239600
     19 NAV          0.2820    -0.3050     1.2720 n          1 BF3      -0.522400
     20 HOAC         5.9860     1.0970    -1.5260 ho         1 BF3       0.430000
     21 HOAD         2.8960    -2.2140    -1.1170 ho         1 BF3       0.456000
     22 HAG         -3.8720    -3.4670    -0.7460 ha         1 BF3       0.143000
     23 HAH         -4.6210    -1.5580    -2.1340 ha         1 BF3       0.151000
     24 HAI          4.8820     2.5820    -0.1770 ha         1 BF3       0.142000
     25 HAJ         -2.1910    -3.1220     1.0290 ha         1 BF3       0.143000
     26 HAK          2.8800     2.9920     1.2220 ha         1 BF3       0.159000
     27 HAL         -1.3480    -0.0950     2.5070 h1         1 BF3       0.074700
     28 HALA        -0.8100    -1.7480     2.2950 h1         1 BF3       0.074700
     29 OAC          5.3950     0.3350    -1.4930 oh         1 BF3      -0.465100
     30 FAE         -1.9440     1.2510     0.1040 f          1 BF3      -0.120900
     31 CLA         -3.8590     1.2010    -2.0580 cl         1 BF3      -0.077400
@<TRIPOS>BOND
     1     1    15 2   
     2     2    16 2   
     3     3    11 1   
     4     3    21 1   
     5     4     5 ar  
     6     4     7 ar  
     7     4    22 1   
     8     5    12 ar  
     9     5    23 1   
    10     6     8 ar  
    11     6    10 ar  
    12     6    24 1   
    13     7    14 ar  
    14     7    25 1   
    15     8    17 ar  
    16     8    26 1   
    17     9    14 1   
    18     9    19 1   
    19     9    27 1   
    20     9    28 1   
    21    10    11 ar  
    22    10    29 1   
    23    11    18 ar  
    24    12    13 ar  
    25    12    31 1   
    26    13    14 ar  
    27    13    30 1   
    28    15    17 1   
    29    15    19 1   
    30    16    18 1   
    31    16    19 1   
    32    17    18 ar  
    33    20    29 1   
@<TRIPOS>SUBSTRUCTURE
     1 BF3         1 TEMP              0 ****  ****    0 ROOT
