@<TRIPOS>MOLECULE
BF3
   31    33     1     0     0
SMALL
No Charge or Current Charge


@<TRIPOS>ATOM
      1 OAA         -0.0810     1.9460     1.1600 o          1 BF3      -0.478000
      2 OAB          1.3490    -2.4580     0.9240 o          1 BF3      -0.518000
      3 OAD          4.0900    -2.0320    -0.1910 oh         1 BF3      -0.501100
      4 CAG         -3.0030    -2.0040    -1.3200 ca         1 BF3      -0.121000
      5 CAH         -4.0470    -1.0640    -1.3670 ca         1 BF3      -0.070000
      6 CAI          4.1300     1.6840    -0.4890 ca         1 BF3      -0.179000
      7 CAJ         -2.0190    -1.9190    -0.3200 ca         1 BF3      -0.058000
      8 CAK          2.8420     2.0030    -0.0040 ca         1 BF3      -0.030000
      9 CAL         -0.9840    -0.8130     1.7140 c3         1 BF3       0.165300
     10 CAM          4.5670     0.3360    -0.5600 ca         1 BF3       0.127100
     11 CAN          3.7080    -0.7190    -0.1390 ca         1 BF3       0.193100
     12 CAO         -4.1070    -0.0360    -0.4110 ca         1 BF3       0.063000
     13 CAP         -3.1200     0.0500     0.5930 ca         1 BF3       0.194000
     14 CAQ         -2.0680    -0.8910     0.6430 ca         1 BF3      -0.144300
     15 CAR          0.6260     0.9720     0.9510 c          1 BF3       0.599600
     16 CAS          1.3410    -1.2400     0.8360 c          1 BF3       0.597600
     17 CAT          2.0150     0.9470     0.4040 ca         1 BF3      -0.144600
     18 CAU          2.4380    -0.3750     0.3370 ca         1 BF3      -0.239600
     19 NAV          0.3120    -0.3670     1.1770 n          1 BF3      -0.388400
     20 HOAC         6.2570     0.9170    -1.2730 ho         1 BF3       0.469000
     21 HOAD         3.3440    -2.5760     0.1470 ho         1 BF3       0.495000
     22 HAG         -2.9570    -2.8000    -2.0600 ha         1 BF3       0.125000
     23 HAH         -4.8070    -1.1310    -2.1410 ha         1 BF3       0.133000
     24 HAI          4.7860     2.4890    -0.8100 ha         1 BF3       0.124000
     25 HAJ         -1.2170    -2.6540    -0.2960 ha         1 BF3       0.125000
     26 HAK          2.5020     3.0350     0.0520 ha         1 BF3       0.141000
     27 HAL         -1.2870    -0.1320     2.5200 h1         1 BF3       0.074700
     28 HALA        -0.8640    -1.8040     2.1710 h1         1 BF3       0.074700
     29 OAC          5.8250     0.0690    -1.0370 oh         1 BF3      -0.504100
     30 FAE         -3.1900     1.0420     1.5120 f          1 BF3      -0.156000
     31 ClA         -5.4240     1.1340    -0.4830 cl         1 BF3      -0.169000
@<TRIPOS>BOND
     1     1    15 2   
     2     2    16 2   
     3     3    11 1   
     4     3    21 1   
     5     4     5 ar  
     6     4     7 ar  
     7     4    22 1   
     8     5    12 ar  
     9     5    23 1   
    10     6     8 ar  
    11     6    10 ar  
    12     6    24 1   
    13     7    14 ar  
    14     7    25 1   
    15     8    17 ar  
    16     8    26 1   
    17     9    14 1   
    18     9    19 1   
    19     9    27 1   
    20     9    28 1   
    21    10    11 ar  
    22    10    29 1   
    23    11    18 ar  
    24    12    13 ar  
    25    12    31 1   
    26    13    14 ar  
    27    13    30 1   
    28    15    17 1   
    29    15    19 1   
    30    16    18 1   
    31    16    19 1   
    32    17    18 ar  
    33    20    29 1   
@<TRIPOS>SUBSTRUCTURE
     1 BF3         1 TEMP              0 ****  ****    0 ROOT
