@<TRIPOS>MOLECULE
BF5
   46    49     1     0     0
SMALL
abcg2


@<TRIPOS>ATOM
      1 C1          -1.0820    -1.5060     0.5560 c2         1 BF5      -0.007700
      2 F1          -2.0350    -2.4710     0.4550 f          1 BF5      -0.207500
      3 N1          -2.6990     0.3200     0.7550 nh         1 BF5      -0.680400
      4 O1          -0.6330     2.0560     0.9890 os         1 BF5      -0.325100
      5 C2          -1.4120    -0.2090     0.6620 ce         1 BF5       0.183000
      6 N2           1.9570     1.3320     0.1570 na         1 BF5      -0.055000
      7 O2           2.9240    -2.5990    -0.4160 oh         1 BF5      -0.616100
      8 C3          -0.3100     0.7560     0.6770 ce         1 BF5      -0.117900
      9 N3          -5.2300    -0.0500    -0.5290 n3         1 BF5      -0.488400
     10 O3           5.7950     0.2520    -1.0100 o          1 BF5      -0.693500
     11 C4           0.3060    -2.0510     0.5810 c6         1 BF5       0.065100
     12 N4          -6.1790    -0.6560    -1.3760 n8         1 BF5      -0.764000
     13 O4           5.1800    -1.8880    -1.0450 o          1 BF5      -0.693500
     14 C5           0.4940     2.8240     1.3340 c6         1 BF5       0.147600
     15 C6           1.5630     2.7330     0.2530 c6         1 BF5       0.045300
     16 C7           1.0870     3.2650    -1.0920 c3         1 BF5      -0.103100
     17 C8           1.3070    -1.0040     0.1650 cd         1 BF5      -0.282300
     18 C9           0.9520     0.3810     0.3420 cd         1 BF5       0.036000
     19 C10          3.1960     0.9830    -0.2260 cd         1 BF5      -0.013000
     20 C11          3.5640    -0.3020    -0.4600 cc         1 BF5      -0.323600
     21 C12          2.5610    -1.3320    -0.2500 cc         1 BF5       0.276100
     22 C13         -3.7900    -0.3640     1.4140 c6         1 BF5       0.230800
     23 C14         -4.7780    -1.0170     0.4530 c6         1 BF5       0.106300
     24 C15         -4.1050     0.5220    -1.2490 c6         1 BF5       0.106300
     25 C16         -3.1620     1.2220    -0.2800 c6         1 BF5       0.230800
     26 C17          4.9580    -0.6450    -0.8680 c          1 BF5       0.735600
     27 HO2          3.9100    -2.5330    -0.7140 ho         1 BF5       0.553000
     28 H4           0.5530    -2.4530     1.5770 hc         1 BF5       0.046700
     29 H4A          0.3540    -2.9100    -0.0970 hc         1 BF5       0.046700
     30 HN4         -6.6610     0.0800    -1.8770 hn         1 BF5       0.380500
     31 HN4A        -5.7100    -1.2230    -2.0840 hn         1 BF5       0.380500
     32 H5           0.1640     3.8550     1.4500 h1         1 BF5       0.047200
     33 H5A          0.9140     2.4870     2.2910 h1         1 BF5       0.047200
     34 H6           2.4330     3.3030     0.5880 h1         1 BF5       0.056700
     35 H7           0.2350     2.6990    -1.4680 hc         1 BF5       0.043700
     36 H7A          0.7890     4.3090    -1.0020 hc         1 BF5       0.043700
     37 H7B          1.8850     3.2060    -1.8320 hc         1 BF5       0.043700
     38 H10          3.8990     1.7980    -0.3390 h4         1 BF5       0.142000
     39 H13         -3.4020    -1.0980     2.1180 h1         1 BF5       0.053700
     40 H13A        -4.3400     0.3780     2.0060 h1         1 BF5       0.053700
     41 H14         -5.6440    -1.3720     1.0160 h1         1 BF5       0.040700
     42 H14A        -4.3190    -1.8920    -0.0300 h1         1 BF5       0.040700
     43 H15         -3.5520    -0.2490    -1.8150 h1         1 BF5       0.040700
     44 H15A        -4.4850     1.2490    -1.9720 h1         1 BF5       0.040700
     45 H16         -3.6920     2.0650     0.1780 h1         1 BF5       0.053700
     46 H16A        -2.3200     1.6330    -0.8330 h1         1 BF5       0.053700
@<TRIPOS>BOND
     1     1     2 1   
     2     1     5 2   
     3     1    11 1   
     4     3     5 1   
     5     3    22 1   
     6     3    25 1   
     7     4     8 1   
     8     4    14 1   
     9     5     8 1   
    10     6    15 1   
    11     6    18 1   
    12     6    19 1   
    13     7    21 1   
    14     7    27 1   
    15     8    18 2   
    16     9    12 1   
    17     9    23 1   
    18     9    24 1   
    19    10    26 1   
    20    11    17 1   
    21    11    28 1   
    22    11    29 1   
    23    12    30 1   
    24    12    31 1   
    25    13    26 1   
    26    14    15 1   
    27    14    32 1   
    28    14    33 1   
    29    15    16 1   
    30    15    34 1   
    31    16    35 1   
    32    16    36 1   
    33    16    37 1   
    34    17    18 1   
    35    17    21 2   
    36    19    20 2   
    37    19    38 1   
    38    20    21 1   
    39    20    26 1   
    40    22    23 1   
    41    22    39 1   
    42    22    40 1   
    43    23    41 1   
    44    23    42 1   
    45    24    25 1   
    46    24    43 1   
    47    24    44 1   
    48    25    45 1   
    49    25    46 1   
@<TRIPOS>SUBSTRUCTURE
     1 BF5         1 TEMP              0 ****  ****    0 ROOT
