@<TRIPOS>MOLECULE
BF5
   46    49     1     0     0
SMALL
No Charge or Current Charge


@<TRIPOS>ATOM
      1 C1          -1.0040    -1.6920     0.5860 c2         1 BF5      -0.007700
      2 F1          -1.8930    -2.6880     0.4240 f          1 BF5      -0.207500
      3 N1          -2.6570     0.0750     0.6490 nh         1 BF5      -0.680400
      4 O1          -0.5820     1.9400     1.0730 os         1 BF5      -0.325100
      5 C2          -1.3220    -0.3740     0.6750 ce         1 BF5       0.183000
      6 N2           1.9750     1.3490     0.1060 na         1 BF5      -0.055000
      7 O2           3.1550    -2.6300    -0.1300 oh         1 BF5      -0.616100
      8 C3          -0.2290     0.6150     0.8240 ce         1 BF5      -0.117900
      9 N3          -5.3770     0.0380    -0.5160 n3         1 BF5      -0.488400
     10 O3           5.8390     0.3190    -0.9560 o          1 BF5      -0.693500
     11 C4           0.4390    -2.1700     0.6370 c6         1 BF5       0.065100
     12 N4          -6.4880    -0.3280    -1.3820 n8         1 BF5      -0.764000
     13 O4           5.4360    -1.7760    -0.7920 o          1 BF5      -0.693500
     14 C5           0.4640     2.9230     1.2200 c6         1 BF5       0.147600
     15 C6           1.5330     2.7590     0.1190 c6         1 BF5       0.045300
     16 C7           1.0180     3.2250    -1.2700 c3         1 BF5      -0.103100
     17 C8           1.4470    -1.0640     0.3290 cd         1 BF5      -0.282300
     18 C9           1.0750     0.3220     0.4440 cd         1 BF5       0.036000
     19 C10          3.2940     1.0260    -0.2550 cd         1 BF5      -0.013000
     20 C11          3.6730    -0.3110    -0.3260 cc         1 BF5      -0.323600
     21 C12          2.7360    -1.3600    -0.0380 cc         1 BF5       0.276100
     22 C13         -3.7860    -0.6140     1.3500 c6         1 BF5       0.230800
     23 C14         -4.8950    -1.0790     0.3560 c6         1 BF5       0.106300
     24 C15         -4.2420     0.7100    -1.2240 c6         1 BF5       0.106300
     25 C16         -3.1160     1.1800    -0.2480 c6         1 BF5       0.230800
     26 C17          5.0810    -0.6080    -0.7190 c          1 BF5       0.735600
     27 HO2          4.1120    -2.5250    -0.4040 ho         1 BF5       0.553000
     28 H4           0.6380    -2.5900     1.6320 hc         1 BF5       0.046700
     29 H4A          0.5520    -3.0010    -0.0730 hc         1 BF5       0.046700
     30 HN4         -7.1620     0.4410    -1.5080 hn         1 BF5       0.380500
     31 HN4A        -6.1810    -0.6290    -2.3190 hn         1 BF5       0.380500
     32 H5           0.0260     3.9310     1.1960 h1         1 BF5       0.047200
     33 H5A          0.9350     2.7810     2.2040 h1         1 BF5       0.047200
     34 H6           2.3910     3.3920     0.3860 h1         1 BF5       0.056700
     35 H7           0.1590     2.6270    -1.5990 hc         1 BF5       0.043700
     36 H7A          0.7060     4.2750    -1.2440 hc         1 BF5       0.043700
     37 H7B          1.8020     3.1300    -2.0310 hc         1 BF5       0.043700
     38 H10          3.9500     1.8610    -0.4750 h4         1 BF5       0.142000
     39 H13         -3.4290    -1.4750     1.9320 h1         1 BF5       0.053700
     40 H13A        -4.2370     0.0810     2.0740 h1         1 BF5       0.053700
     41 H14         -5.7290    -1.4990     0.9370 h1         1 BF5       0.040700
     42 H14A        -4.4910    -1.8930    -0.2630 h1         1 BF5       0.040700
     43 H15         -3.7960     0.0200    -1.9560 h1         1 BF5       0.040700
     44 H15A        -4.6030     1.5850    -1.7850 h1         1 BF5       0.040700
     45 H16         -3.4940     2.0150     0.3600 h1         1 BF5       0.053700
     46 H16A        -2.2800     1.5680    -0.8460 h1         1 BF5       0.053700
@<TRIPOS>BOND
     1     1     2 1   
     2     1     5 2   
     3     1    11 1   
     4     3     5 1   
     5     3    22 1   
     6     3    25 1   
     7     4     8 1   
     8     4    14 1   
     9     5     8 1   
    10     6    15 1   
    11     6    18 1   
    12     6    19 1   
    13     7    21 1   
    14     7    27 1   
    15     8    18 2   
    16     9    12 1   
    17     9    23 1   
    18     9    24 1   
    19    10    26 1   
    20    11    17 1   
    21    11    28 1   
    22    11    29 1   
    23    12    30 1   
    24    12    31 1   
    25    13    26 1   
    26    14    15 1   
    27    14    32 1   
    28    14    33 1   
    29    15    16 1   
    30    15    34 1   
    31    16    35 1   
    32    16    36 1   
    33    16    37 1   
    34    17    18 1   
    35    17    21 2   
    36    19    20 2   
    37    19    38 1   
    38    20    21 1   
    39    20    26 1   
    40    22    23 1   
    41    22    39 1   
    42    22    40 1   
    43    23    41 1   
    44    23    42 1   
    45    24    25 1   
    46    24    43 1   
    47    24    44 1   
    48    25    45 1   
    49    25    46 1   
@<TRIPOS>SUBSTRUCTURE
     1 BF5         1 TEMP              0 ****  ****    0 ROOT
