@<TRIPOS>MOLECULE
BF6
   43    45     1     0     0
SMALL
abcg2


@<TRIPOS>ATOM
      1 CB2         -1.1120    -1.7400     0.0160 ce         1 BF6      -0.137200
      2 CA3         -5.6140     0.0380    -0.6130 c3         1 BF6      -0.061000
      3 C3          -6.1330     0.5750     0.7420 c          1 BF6       0.709000
      4 CA1         -3.6340     2.2370    -1.1690 c3         1 BF6       0.115500
      5 C01          4.7610     1.0620     1.1130 ca         1 BF6      -0.065500
      6 C02          5.4480     2.2360     1.3890 ca         1 BF6      -0.127000
      7 C03          6.6360     2.5170     0.7280 ca         1 BF6      -0.094000
      8 C04          7.1480     1.6130    -0.1970 ca         1 BF6      -0.127000
      9 C05          6.4760     0.4300    -0.4560 ca         1 BF6      -0.065500
     10 C06          5.2690     0.1510     0.1870 ca         1 BF6      -0.161600
     11 CZ           3.1190    -1.2390    -0.0120 ca         1 BF6      -0.186600
     12 CE2          2.2950    -0.1650    -0.3530 ca         1 BF6      -0.076500
     13 CD2          0.9180    -0.2970    -0.3560 ca         1 BF6      -0.111500
     14 CG2          0.3220    -1.5140    -0.0000 ca         1 BF6      -0.000800
     15 CD1          1.1570    -2.5870     0.3420 ca         1 BF6      -0.111500
     16 CE1          2.5310    -2.4580     0.3250 ca         1 BF6      -0.076500
     17 CA2         -2.1060    -0.8730    -0.2460 cd         1 BF6       0.055400
     18 C1          -3.2410     0.8590    -0.7700 cc         1 BF6       0.518900
     19 C2          -3.5400    -1.2770    -0.2400 c          1 BF6       0.535200
     20 N2          -2.0260     0.4700    -0.5740 nd         1 BF6      -0.658300
     21 N3          -4.1850    -0.1350    -0.6430 n          1 BF6      -0.307300
     22 N1          -2.5060     3.1380    -1.1610 n8         1 BF6      -0.974200
     23 O08          5.2600    -2.1350    -0.3480 o          1 BF6      -0.537100
     24 O2          -4.0550    -2.3400     0.0330 o          1 BF6      -0.508000
     25 O3          -5.2790     0.9060     1.5790 o          1 BF6      -0.712000
     26 OXT         -7.3720     0.6300     0.8350 o          1 BF6      -0.712000
     27 H1          -1.4250    -2.7480     0.2660 ha         1 BF6       0.187000
     28 H3          -6.0770    -0.9230    -0.8380 h1         1 BF6       0.045200
     29 H4          -5.9120     0.7160    -1.4150 h1         1 BF6       0.045200
     30 H5          -4.1570     2.1580    -2.1350 h1         1 BF6       0.064200
     31 H6          -4.3850     2.5920    -0.4570 h1         1 BF6       0.064200
     32 H9           7.1650     3.4380     0.9350 ha         1 BF6       0.108000
     33 H10          8.0740     1.8310    -0.7120 ha         1 BF6       0.113000
     34 H11          6.8830    -0.2730    -1.1710 ha         1 BF6       0.128000
     35 H12          2.7280     0.7820    -0.6470 ha         1 BF6       0.116000
     36 H13          0.3000     0.5440    -0.6350 ha         1 BF6       0.136500
     37 H14          0.7160    -3.5360     0.6220 ha         1 BF6       0.136500
     38 H15          3.1510    -3.3050     0.5880 ha         1 BF6       0.116000
     39 H17         -1.8250     2.8400    -1.8470 hn         1 BF6       0.390000
     40 H18         -2.8240     4.0530    -1.4510 hn         1 BF6       0.390000
     41 H7           3.8400     0.8490     1.6400 ha         1 BF6       0.128000
     42 C07          4.6010    -1.1500    -0.0780 c          1 BF6       0.597300
     43 H8           5.0520     2.9300     2.1180 ha         1 BF6       0.113000
@<TRIPOS>BOND
     1     1    14 1   
     2     1    17 2   
     3     1    27 1   
     4     2     3 1   
     5     2    21 1   
     6     2    28 1   
     7     2    29 1   
     8     3    25 1   
     9     3    26 1   
    10     4    18 1   
    11     4    22 1   
    12     4    30 1   
    13     4    31 1   
    14     5     6 ar  
    15     5    10 ar  
    16     5    41 1   
    17     6     7 ar  
    18     6    43 1   
    19     7     8 ar  
    20     7    32 1   
    21     8     9 ar  
    22     8    33 1   
    23     9    10 ar  
    24     9    34 1   
    25    10    42 1   
    26    11    12 ar  
    27    11    16 ar  
    28    11    42 1   
    29    12    13 ar  
    30    12    35 1   
    31    13    14 ar  
    32    13    36 1   
    33    14    15 ar  
    34    15    16 ar  
    35    15    37 1   
    36    16    38 1   
    37    17    19 1   
    38    17    20 1   
    39    18    20 2   
    40    18    21 1   
    41    19    21 1   
    42    19    24 2   
    43    22    39 1   
    44    22    40 1   
    45    23    42 2   
@<TRIPOS>SUBSTRUCTURE
     1 BF6         1 TEMP              0 ****  ****    0 ROOT
