@<TRIPOS>MOLECULE
BF6
   43    45     1     0     0
SMALL
No Charge or Current Charge


@<TRIPOS>ATOM
      1 CB2         -1.1390    -1.8370    -0.2300 ce         1 BF6      -0.137200
      2 CA3         -5.6240     0.1660    -0.8220 c3         1 BF6      -0.061000
      3 C3          -6.4090     0.2360     0.5070 c          1 BF6       0.709000
      4 CA1         -3.4780     2.4380    -0.7390 c3         1 BF6       0.115500
      5 C01          4.6230     1.2440     0.7790 ca         1 BF6      -0.065500
      6 C02          5.2370     2.5080     0.7640 ca         1 BF6      -0.127000
      7 C03          6.5300     2.6600     0.2360 ca         1 BF6      -0.094000
      8 C04          7.2120     1.5430    -0.2710 ca         1 BF6      -0.127000
      9 C05          6.6020     0.2760    -0.2570 ca         1 BF6      -0.065500
     10 C06          5.2950     0.1160     0.2550 ca         1 BF6      -0.161600
     11 CZ           3.1560    -1.3780     0.1460 ca         1 BF6      -0.186600
     12 CE2          2.4120    -0.4670    -0.6360 ca         1 BF6      -0.076500
     13 CD2          1.0180    -0.6040    -0.7590 ca         1 BF6      -0.111500
     14 CG2          0.3390    -1.6520    -0.1070 ca         1 BF6      -0.000800
     15 CD1          1.0840    -2.5770     0.6470 ca         1 BF6      -0.111500
     16 CE1          2.4770    -2.4440     0.7730 ca         1 BF6      -0.076500
     17 CA2         -2.1610    -0.9230    -0.3960 cd         1 BF6       0.055400
     18 C1          -3.1760     0.9370    -0.5940 cc         1 BF6       0.518900
     19 C2          -3.5890    -1.2820    -0.5210 c          1 BF6       0.535200
     20 N2          -1.9320     0.4500    -0.4490 nd         1 BF6      -0.658300
     21 N3          -4.1590    -0.0400    -0.6570 n          1 BF6      -0.307300
     22 N1          -2.4850     3.3930    -0.1290 n8         1 BF6      -0.974200
     23 O08          5.3530    -2.2610     0.3990 o          1 BF6      -0.537100
     24 O2          -4.1410    -2.3750    -0.5130 o          1 BF6      -0.508000
     25 O3          -6.0730     1.0750     1.3310 o          1 BF6      -0.712000
     26 OXT         -7.3130    -0.5660     0.6890 o          1 BF6      -0.712000
     27 H1          -1.4670    -2.8750    -0.1660 ha         1 BF6       0.187000
     28 H3          -6.0330    -0.6560    -1.4220 h1         1 BF6       0.045200
     29 H4          -5.8070     1.0960    -1.3740 h1         1 BF6       0.045200
     30 H5          -3.5520     2.6550    -1.8130 h1         1 BF6       0.064200
     31 H6          -4.4610     2.6450    -0.2960 h1         1 BF6       0.064200
     32 H9           7.0030     3.6390     0.2260 ha         1 BF6       0.108000
     33 H10          8.2160     1.6570    -0.6740 ha         1 BF6       0.113000
     34 H11          7.1440    -0.5810    -0.6530 ha         1 BF6       0.128000
     35 H12          2.9100     0.3410    -1.1670 ha         1 BF6       0.116000
     36 H13          0.4730     0.1020    -1.3790 ha         1 BF6       0.136500
     37 H14          0.5800    -3.4020     1.1460 ha         1 BF6       0.136500
     38 H15          3.0290    -3.1700     1.3670 ha         1 BF6       0.116000
     39 H17         -1.5560     3.2030    -0.5270 hn         1 BF6       0.390000
     40 H18         -2.6980     4.3510    -0.4320 hn         1 BF6       0.390000
     41 H7           3.6300     1.1450     1.2110 ha         1 BF6       0.128000
     42 C07          4.6580    -1.2560     0.2770 c          1 BF6       0.597300
     43 H8           4.7110     3.3710     1.1670 ha         1 BF6       0.113000
@<TRIPOS>BOND
     1     1    14 1   
     2     1    17 2   
     3     1    27 1   
     4     2     3 1   
     5     2    21 1   
     6     2    28 1   
     7     2    29 1   
     8     3    25 1   
     9     3    26 1   
    10     4    18 1   
    11     4    22 1   
    12     4    30 1   
    13     4    31 1   
    14     5     6 ar  
    15     5    10 ar  
    16     5    41 1   
    17     6     7 ar  
    18     6    43 1   
    19     7     8 ar  
    20     7    32 1   
    21     8     9 ar  
    22     8    33 1   
    23     9    10 ar  
    24     9    34 1   
    25    10    42 1   
    26    11    12 ar  
    27    11    16 ar  
    28    11    42 1   
    29    12    13 ar  
    30    12    35 1   
    31    13    14 ar  
    32    13    36 1   
    33    14    15 ar  
    34    15    16 ar  
    35    15    37 1   
    36    16    38 1   
    37    17    19 1   
    38    17    20 1   
    39    18    20 2   
    40    18    21 1   
    41    19    21 1   
    42    19    24 2   
    43    22    39 1   
    44    22    40 1   
    45    23    42 2   
@<TRIPOS>SUBSTRUCTURE
     1 BF6         1 TEMP              0 ****  ****    0 ROOT
