@<TRIPOS>MOLECULE
BF7
   22    22     1     0     0
SMALL
No Charge or Current Charge


@<TRIPOS>ATOM
      1 N            0.7810     6.1390     8.4900 n8         1 BF7      -0.977200
      2 CA          -0.4930     5.6060     9.0990 c3         1 BF7       0.018500
      3 C           -1.5170     4.9160     8.1030 c          1 BF7       0.727000
      4 O           -2.6040     5.4510     7.9260 o          1 BF7      -0.728000
      5 CB          -0.1510     4.6720    10.2890 c3         1 BF7      -0.060100
      6 CG          -1.3730     4.3240    11.1310 ca         1 BF7      -0.016300
      7 CD1         -1.9060     5.2690    12.0300 ca         1 BF7      -0.097000
      8 CD2         -1.9810     3.0580    11.0180 ca         1 BF7      -0.097000
      9 CE1         -3.0350     4.9520    12.8070 ca         1 BF7      -0.091000
     10 CE2         -3.1090     2.7400    11.7940 ca         1 BF7      -0.091000
     11 CZ          -3.6340     3.6880    12.6880 ca         1 BF7      -0.025900
     12 Br          -5.1690     3.2560    13.7430 br         1 BF7      -0.154100
     13 O1          -1.1500     3.9290     7.4760 o          1 BF7      -0.728000
     14 H1           1.4210     6.4290     9.2380 hn         1 BF7       0.372000
     15 H3           1.2730     5.3660     8.0270 hn         1 BF7       0.372000
     16 HCA         -1.0170     6.4760     9.5210 h1         1 BF7       0.049700
     17 HB2          0.3270     3.7590     9.9120 hc         1 BF7       0.030200
     18 HB3          0.5940     5.1600    10.9310 hc         1 BF7       0.030200
     19 HD1         -1.4460     6.2500    12.1260 ha         1 BF7       0.121000
     20 HD2         -1.5800     2.3200    10.3260 ha         1 BF7       0.121000
     21 HE1         -3.4410     5.6860    13.4990 ha         1 BF7       0.112500
     22 HE2         -3.5740     1.7610    11.7020 ha         1 BF7       0.112500
@<TRIPOS>BOND
     1     1     2 1   
     2     1    14 1   
     3     1    15 1   
     4     2     3 1   
     5     2     5 1   
     6     2    16 1   
     7     3     4 1   
     8     3    13 1   
     9     5     6 1   
    10     5    17 1   
    11     5    18 1   
    12     6     7 ar  
    13     6     8 ar  
    14     7     9 ar  
    15     7    19 1   
    16     8    10 ar  
    17     8    20 1   
    18     9    11 ar  
    19     9    21 1   
    20    10    11 ar  
    21    10    22 1   
    22    11    12 1   
@<TRIPOS>SUBSTRUCTURE
     1 BF7         1 TEMP              0 ****  ****    0 ROOT
