@<TRIPOS>MOLECULE
BF7
   22    22     1     0     0
SMALL
bcc


@<TRIPOS>ATOM
      1 N            0.6570     6.0680     8.3930 n8         1 BF7      -0.866800
      2 CA          -0.5130     5.6100     9.1290 c3         1 BF7       0.018500
      3 C           -1.4320     4.8180     8.1700 c          1 BF7       0.937600
      4 O           -2.6180     5.1820     8.0750 o          1 BF7      -0.833300
      5 CB          -0.1480     4.7370    10.3500 c3         1 BF7      -0.060100
      6 CG          -1.3430     4.3530    11.1710 ca         1 BF7      -0.016300
      7 CD1         -1.8430     5.2200    12.1390 ca         1 BF7      -0.115000
      8 CD2         -2.0160     3.1520    10.9580 ca         1 BF7      -0.115000
      9 CE1         -2.9820     4.9130    12.8700 ca         1 BF7      -0.109000
     10 CE2         -3.1560     2.8220    11.6780 ca         1 BF7      -0.109000
     11 CZ          -3.6330     3.7130    12.6270 ca         1 BF7      -0.025900
     12 BR          -5.1950     3.2870    13.6050 br         1 BF7      -0.154100
     13 O1          -0.8870     3.8620     7.5790 o          1 BF7      -0.833300
     14 H1           1.3270     6.4800     9.0320 hn         1 BF7       0.316800
     15 H3           1.1130     5.2590     7.9870 hn         1 BF7       0.316800
     16 HCA         -1.0520     6.4910     9.4920 h1         1 BF7       0.049700
     17 HB2          0.3720     3.8440     9.9950 hc         1 BF7       0.030200
     18 HB3          0.5580     5.2920    10.9740 hc         1 BF7       0.030200
     19 HD1         -1.3360     6.1570    12.3350 ha         1 BF7       0.139000
     20 HD2         -1.6510     2.4590    10.2100 ha         1 BF7       0.139000
     21 HE1         -3.3480     5.6050    13.6160 ha         1 BF7       0.130500
     22 HE2         -3.6580     1.8820    11.4910 ha         1 BF7       0.130500
@<TRIPOS>BOND
     1     1     2 1   
     2     1    14 1   
     3     1    15 1   
     4     2     3 1   
     5     2     5 1   
     6     2    16 1   
     7     3     4 1   
     8     3    13 1   
     9     5     6 1   
    10     5    17 1   
    11     5    18 1   
    12     6     7 ar  
    13     6     8 ar  
    14     7     9 ar  
    15     7    19 1   
    16     8    10 ar  
    17     8    20 1   
    18     9    11 ar  
    19     9    21 1   
    20    10    11 ar  
    21    10    22 1   
    22    11    12 1   
@<TRIPOS>SUBSTRUCTURE
     1 BF7         1 TEMP              0 ****  ****    0 ROOT
