@<TRIPOS>MOLECULE
BF9
   50    52     1     0     0
SMALL
abcg2


@<TRIPOS>ATOM
      1 C01         -6.0430     0.9240     0.8770 ca         1 BF9      -0.066000
      2 C02         -7.1810     1.6640     1.1650 ca         1 BF9      -0.127500
      3 C03         -8.4110     1.2760     0.6520 ca         1 BF9      -0.095000
      4 C04         -8.5070     0.1340    -0.1360 ca         1 BF9      -0.127500
      5 C05         -7.3770    -0.6210    -0.4040 ca         1 BF9      -0.066000
      6 C06         -6.1330    -0.2230     0.0890 ca         1 BF9      -0.160600
      7 C07         -4.9470    -1.0790    -0.1770 c          1 BF9       0.597300
      8 CZ          -3.6090    -0.4450    -0.3060 ca         1 BF9      -0.188600
      9 CE2         -2.4740    -1.1730     0.0570 ca         1 BF9      -0.076000
     10 CD2         -1.2100    -0.6390    -0.0940 ca         1 BF9      -0.112500
     11 CG2         -1.0400     0.6400    -0.6460 ca         1 BF9       0.003200
     12 CD1         -2.1810     1.3540    -1.0290 ca         1 BF9      -0.112500
     13 CE1         -3.4480     0.8270    -0.8540 ca         1 BF9      -0.076000
     14 CB2          0.2530     1.2670    -0.8540 ce         1 BF9      -0.144200
     15 CA2          1.4770     0.7920    -0.5640 cd         1 BF9       0.068400
     16 C1           3.1190    -0.4280     0.0630 cc         1 BF9       0.552900
     17 C2           2.7230     1.5500    -0.8640 c          1 BF9       0.537200
     18 C3           5.5500     1.4450     1.0300 c          1 BF9       0.706000
     19 CA1          3.8750    -1.6050     0.5990 c3         1 BF9       0.113200
     20 CB1          3.9420    -2.6750    -0.5170 c3         1 BF9       0.125300
     21 CG1          4.7910    -3.8680    -0.1100 c3         1 BF9      -0.131100
     22 N2           1.8280    -0.4130     0.0170 nd         1 BF9      -0.681300
     23 N3           3.7170     0.6830    -0.4790 n          1 BF9      -0.290300
     24 N1           3.2390    -2.0470     1.8230 n8         1 BF9      -0.962200
     25 O08         -5.0680    -2.2830    -0.2900 o          1 BF9      -0.532100
     26 O2           2.8710     2.6570    -1.3360 o          1 BF9      -0.513000
     27 O3           4.6780     1.4290     1.9130 o          1 BF9      -0.710000
     28 OG1          4.3910    -2.1060    -1.7300 oh         1 BF9      -0.649000
     29 H1          -5.0910     1.2310     1.2900 ha         1 BF9       0.128000
     30 H2          -7.1050     2.5440     1.7900 ha         1 BF9       0.112000
     31 H3          -9.2960     1.8610     0.8660 ha         1 BF9       0.107000
     32 H4          -9.4650    -0.1690    -0.5370 ha         1 BF9       0.112000
     33 H5          -7.4560    -1.5130    -1.0110 ha         1 BF9       0.128000
     34 H6          -2.5830    -2.1650     0.4770 ha         1 BF9       0.115000
     35 H7          -0.3440    -1.2100     0.2080 ha         1 BF9       0.134500
     36 H8          -2.0720     2.3370    -1.4710 ha         1 BF9       0.134500
     37 H9          -4.3080     1.4020    -1.1700 ha         1 BF9       0.115000
     38 H10          0.2270     2.2500    -1.3120 ha         1 BF9       0.186000
     39 H13          5.2810     1.8680    -1.0820 h1         1 BF9       0.043700
     40 H14          5.7260     0.2150    -0.7600 h1         1 BF9       0.043700
     41 H17          4.8960    -1.3020     0.8480 h1         1 BF9       0.102700
     42 H18          2.9170    -3.0090    -0.7070 h1         1 BF9       0.073700
     43 H19          4.4000    -4.3590     0.7810 hc         1 BF9       0.039367
     44 H20          4.8110    -4.6100    -0.9080 hc         1 BF9       0.039367
     45 H21          5.8200    -3.5640     0.1000 hc         1 BF9       0.039367
     46 H22          2.3140    -2.4060     1.6220 hn         1 BF9       0.395000
     47 H23          3.7690    -2.8080     2.2270 hn         1 BF9       0.395000
     48 H26          5.3470    -1.9980    -1.6840 ho         1 BF9       0.443000
     49 OXT          6.7510     1.7480     1.1310 o          1 BF9      -0.710000
     50 CA3          5.1100     1.0380    -0.3960 c3         1 BF9      -0.060000
@<TRIPOS>BOND
     1     1     2 ar  
     2     1     6 ar  
     3     1    29 1   
     4     2     3 ar  
     5     2    30 1   
     6     3     4 ar  
     7     3    31 1   
     8     4     5 ar  
     9     4    32 1   
    10     5     6 ar  
    11     5    33 1   
    12     6     7 1   
    13     7     8 1   
    14     7    25 2   
    15     8     9 ar  
    16     8    13 ar  
    17     9    10 ar  
    18     9    34 1   
    19    10    11 ar  
    20    10    35 1   
    21    11    12 ar  
    22    11    14 1   
    23    12    13 ar  
    24    12    36 1   
    25    13    37 1   
    26    14    15 2   
    27    14    38 1   
    28    15    17 1   
    29    15    22 1   
    30    16    19 1   
    31    16    22 2   
    32    16    23 1   
    33    17    23 1   
    34    17    26 2   
    35    18    27 1   
    36    18    49 1   
    37    18    50 1   
    38    19    20 1   
    39    19    24 1   
    40    19    41 1   
    41    20    21 1   
    42    20    28 1   
    43    20    42 1   
    44    21    43 1   
    45    21    44 1   
    46    21    45 1   
    47    23    50 1   
    48    24    46 1   
    49    24    47 1   
    50    28    48 1   
    51    39    50 1   
    52    40    50 1   
@<TRIPOS>SUBSTRUCTURE
     1 BF9         1 TEMP              0 ****  ****    0 ROOT
