@<TRIPOS>MOLECULE
BF9
   50    52     1     0     0
SMALL
No Charge or Current Charge


@<TRIPOS>ATOM
      1 C01         -5.7970     0.4540     1.0890 ca         1 BF9      -0.066000
      2 C02         -6.8160     1.0920     1.8180 ca         1 BF9      -0.127500
      3 C03         -8.1560     0.9640     1.4200 ca         1 BF9      -0.095000
      4 C04         -8.4790     0.1910     0.2930 ca         1 BF9      -0.127500
      5 C05         -7.4640    -0.4490    -0.4390 ca         1 BF9      -0.066000
      6 C06         -6.1100    -0.3130    -0.0570 ca         1 BF9      -0.160600
      7 C07         -5.0310    -1.0200    -0.8460 c          1 BF9       0.597300
      8 CZ          -3.6520    -0.4020    -0.9340 ca         1 BF9      -0.188600
      9 CE2         -2.5150    -1.2290    -1.0540 ca         1 BF9      -0.076000
     10 CD2         -1.2290    -0.6690    -1.1490 ca         1 BF9      -0.112500
     11 CG2         -1.0520     0.7280    -1.1310 ca         1 BF9       0.003200
     12 CD1         -2.1880     1.5540    -1.0430 ca         1 BF9      -0.112500
     13 CE1         -3.4750     0.9990    -0.9460 ca         1 BF9      -0.076000
     14 CB2          0.2960     1.3590    -1.2480 ce         1 BF9      -0.144200
     15 CA2          1.5410     0.9290    -0.8330 cd         1 BF9       0.068400
     16 C1           3.0510    -0.2750     0.0600 cc         1 BF9       0.552900
     17 C2           2.8000     1.6700    -1.0590 c          1 BF9       0.537200
     18 C3           5.6660     1.5630     1.0040 c          1 BF9       0.706000
     19 CA1          3.7610    -1.4260     0.7960 c3         1 BF9       0.113200
     20 CB1          3.8800    -2.6840    -0.1220 c3         1 BF9       0.125300
     21 CG1          4.6800    -3.8450     0.5130 c3         1 BF9      -0.131100
     22 N2           1.7210    -0.2630    -0.1380 nd         1 BF9      -0.681300
     23 N3           3.7080     0.8340    -0.4570 n          1 BF9      -0.290300
     24 N1           3.1390    -1.7650     2.1320 n8         1 BF9      -0.962200
     25 O08         -5.2700    -2.0830    -1.4110 o          1 BF9      -0.532100
     26 O2           3.0050     2.7380    -1.6260 o          1 BF9      -0.513000
     27 O3           5.1050     2.5000     1.5540 o          1 BF9      -0.710000
     28 OG1          4.5330    -2.3280    -1.3470 oh         1 BF9      -0.649000
     29 H1          -4.7670     0.5490     1.4270 ha         1 BF9       0.128000
     30 H2          -6.5650     1.6810     2.6970 ha         1 BF9       0.112000
     31 H3          -8.9430     1.4580     1.9860 ha         1 BF9       0.107000
     32 H4          -9.5170     0.0860    -0.0130 ha         1 BF9       0.112000
     33 H5          -7.7300    -1.0450    -1.3100 ha         1 BF9       0.128000
     34 H6          -2.6250    -2.3120    -1.0700 ha         1 BF9       0.115000
     35 H7          -0.3730    -1.3300    -1.2520 ha         1 BF9       0.134500
     36 H8          -2.0740     2.6360    -1.0480 ha         1 BF9       0.134500
     37 H9          -4.3340     1.6650    -0.8930 ha         1 BF9       0.115000
     38 H10          0.2960     2.3300    -1.7460 ha         1 BF9       0.186000
     39 H13          5.4140     1.9300    -1.0980 h1         1 BF9       0.043700
     40 H14          5.7220     0.2340    -0.7010 h1         1 BF9       0.043700
     41 H17          4.7890    -1.1010     1.0030 h1         1 BF9       0.102700
     42 H18          2.8640    -3.0470    -0.3370 h1         1 BF9       0.073700
     43 H19          4.1770    -4.2300     1.4080 hc         1 BF9       0.039367
     44 H20          4.7780    -4.6790    -0.1920 hc         1 BF9       0.039367
     45 H21          5.6870    -3.5160     0.7970 hc         1 BF9       0.039367
     46 H22          2.1460    -1.9880     1.9870 hn         1 BF9       0.395000
     47 H23          3.5450    -2.6370     2.4880 hn         1 BF9       0.395000
     48 H26          4.5920    -3.1410    -1.8960 ho         1 BF9       0.443000
     49 OXT          6.5740     0.9240     1.5150 o          1 BF9      -0.710000
     50 CA3          5.1660     1.1280    -0.3910 c3         1 BF9      -0.060000
@<TRIPOS>BOND
     1     1     2 ar  
     2     1     6 ar  
     3     1    29 1   
     4     2     3 ar  
     5     2    30 1   
     6     3     4 ar  
     7     3    31 1   
     8     4     5 ar  
     9     4    32 1   
    10     5     6 ar  
    11     5    33 1   
    12     6     7 1   
    13     7     8 1   
    14     7    25 2   
    15     8     9 ar  
    16     8    13 ar  
    17     9    10 ar  
    18     9    34 1   
    19    10    11 ar  
    20    10    35 1   
    21    11    12 ar  
    22    11    14 1   
    23    12    13 ar  
    24    12    36 1   
    25    13    37 1   
    26    14    15 2   
    27    14    38 1   
    28    15    17 1   
    29    15    22 1   
    30    16    19 1   
    31    16    22 2   
    32    16    23 1   
    33    17    23 1   
    34    17    26 2   
    35    18    27 1   
    36    18    49 1   
    37    18    50 1   
    38    19    20 1   
    39    19    24 1   
    40    19    41 1   
    41    20    21 1   
    42    20    28 1   
    43    20    42 1   
    44    21    43 1   
    45    21    44 1   
    46    21    45 1   
    47    23    50 1   
    48    24    46 1   
    49    24    47 1   
    50    28    48 1   
    51    39    50 1   
    52    40    50 1   
@<TRIPOS>SUBSTRUCTURE
     1 BF9         1 TEMP              0 ****  ****    0 ROOT
