@<TRIPOS>MOLECULE
BFB
   40    40     1     0     0
SMALL
abcg2


@<TRIPOS>ATOM
      1 OAE         -0.9110    -1.8730     1.6320 o          1 BFB      -0.594100
      2 CAU         -0.2050    -1.2310     2.3920 c          1 BFB       0.598100
      3 NAA          0.8470    -1.7390     3.0440 nt         1 BFB      -0.602000
      4 CAZ         -0.5130     0.2300     2.7300 c3         1 BFB       0.038700
      5 CAO         -1.5140     0.2790     3.8850 c3         1 BFB      -0.088400
      6 CAM         -1.7740     1.6920     4.3910 c3         1 BFB      -0.090400
      7 CAN         -2.7360     1.6910     5.5680 c3         1 BFB       0.217800
      8 NAR         -2.9600     3.0360     6.0420 nu         1 BFB      -0.962400
      9 CAV         -3.7920     3.3260     7.0780 c2         1 BFB       0.625200
     10 CAP         -3.7630     4.7680     7.5010 c3         1 BFB      -0.140400
     11 NAC         -4.5760     2.5080     7.6730 n2         1 BFB      -0.840100
     12 NAS         -1.0520     0.9050     1.5780 ns         1 BFB      -0.491900
     13 CAW         -0.3190     1.0780     0.4660 c          1 BFB       0.618700
     14 OAF          0.8590     0.7500     0.4110 o          1 BFB      -0.604100
     15 CAX         -1.0090     1.7160    -0.6940 ca         1 BFB      -0.146600
     16 CAK         -2.3750     1.5690    -0.9250 ca         1 BFB      -0.071000
     17 CAL         -0.2410     2.4560    -1.5910 ca         1 BFB      -0.071000
     18 CAJ         -0.8350     3.0640    -2.6860 ca         1 BFB      -0.119500
     19 CAH         -2.2000     2.9210    -2.9060 ca         1 BFB      -0.089000
     20 CAI         -2.9660     2.1670    -2.0290 ca         1 BFB      -0.119500
     21 HAA1         1.0950    -2.7100     2.9410 hn         1 BFB       0.315500
     22 HAA2         1.4420    -1.1690     3.6200 hn         1 BFB       0.315500
     23 HAZ          0.4080     0.7300     3.0460 h1         1 BFB       0.067700
     24 HAO1        -1.1190    -0.3280     4.7030 hc         1 BFB       0.059700
     25 HAO2        -2.4500    -0.1920     3.5700 hc         1 BFB       0.059700
     26 HAM1        -0.8260     2.1480     4.6950 hc         1 BFB       0.049700
     27 HAM2        -2.1850     2.3190     3.5960 hc         1 BFB       0.049700
     28 HAN1        -3.6870     1.2490     5.2540 h1         1 BFB       0.038200
     29 HAN2        -2.3390     1.0520     6.3670 h1         1 BFB       0.038200
     30 HNAR        -2.2670     3.7260     5.8020 hn         1 BFB       0.479000
     31 HAP1        -2.7570     5.0660     7.8010 hc         1 BFB       0.055367
     32 HAP2        -4.0630     5.4190     6.6780 hc         1 BFB       0.055367
     33 HAP3        -4.4380     4.9310     8.3380 hc         1 BFB       0.055367
     34 HNAC        -4.4960     1.5660     7.3020 hn         1 BFB       0.371400
     35 HNAS        -2.0140     1.2010     1.5990 hn         1 BFB       0.326500
     36 HAK         -2.9870     0.9650    -0.2670 ha         1 BFB       0.124000
     37 HAL          0.8230     2.5660    -1.4250 ha         1 BFB       0.124000
     38 HAJ         -0.2330     3.6480    -3.3690 ha         1 BFB       0.117500
     39 HAH         -2.6620     3.3900    -3.7640 ha         1 BFB       0.115000
     40 HAI         -4.0260     2.0390    -2.2050 ha         1 BFB       0.117500
@<TRIPOS>BOND
     1     1     2 2   
     2     2     3 1   
     3     2     4 1   
     4     3    21 1   
     5     3    22 1   
     6     4     5 1   
     7     4    12 1   
     8     4    23 1   
     9     5     6 1   
    10     5    24 1   
    11     5    25 1   
    12     6     7 1   
    13     6    26 1   
    14     6    27 1   
    15     7     8 1   
    16     7    28 1   
    17     7    29 1   
    18     8     9 1   
    19     8    30 1   
    20     9    10 1   
    21     9    11 2   
    22    10    31 1   
    23    10    32 1   
    24    10    33 1   
    25    11    34 1   
    26    12    13 1   
    27    12    35 1   
    28    13    14 2   
    29    13    15 1   
    30    15    16 ar  
    31    15    17 ar  
    32    16    20 ar  
    33    16    36 1   
    34    17    18 ar  
    35    17    37 1   
    36    18    19 ar  
    37    18    38 1   
    38    19    20 ar  
    39    19    39 1   
    40    20    40 1   
@<TRIPOS>SUBSTRUCTURE
     1 BFB         1 TEMP              0 ****  ****    0 ROOT
