@<TRIPOS>MOLECULE
BFB
   40    40     1     0     0
SMALL
No Charge or Current Charge


@<TRIPOS>ATOM
      1 OAE         -0.4330    -2.3240     1.3880 o          1 BFB      -0.594100
      2 CAU         -0.1560    -1.7470     2.4290 c          1 BFB       0.598100
      3 NAA          0.4160    -2.4370     3.4430 nt         1 BFB      -0.602000
      4 CAZ         -0.4350    -0.2320     2.6820 c3         1 BFB       0.038700
      5 CAO         -1.4040    -0.0070     3.8780 c3         1 BFB      -0.088400
      6 CAM         -1.6630     1.4780     4.2330 c3         1 BFB      -0.090400
      7 CAN         -2.5650     1.6500     5.4710 c3         1 BFB       0.217800
      8 NAR         -2.7730     3.0780     5.7580 nu         1 BFB      -0.962400
      9 CAV         -3.5180     3.6140     6.7730 c2         1 BFB       0.625200
     10 CAP         -3.5630     5.1160     6.8430 c3         1 BFB      -0.140400
     11 NAC         -4.1100     2.8300     7.5720 n2         1 BFB      -0.840100
     12 NAS         -0.9330     0.4100     1.4420 ns         1 BFB      -0.491900
     13 CAW         -0.5700     1.6610     0.9860 c          1 BFB       0.618700
     14 OAF          0.2320     2.3530     1.5980 o          1 BFB      -0.604100
     15 CAX         -1.2120     2.1240    -0.3080 ca         1 BFB      -0.146600
     16 CAK         -2.1530     1.3310    -1.0130 ca         1 BFB      -0.071000
     17 CAL         -0.8690     3.3910    -0.8370 ca         1 BFB      -0.071000
     18 CAJ         -1.4460     3.8520    -2.0330 ca         1 BFB      -0.119500
     19 CAH         -2.3750     3.0560    -2.7200 ca         1 BFB      -0.089000
     20 CAI         -2.7270     1.7970    -2.2090 ca         1 BFB      -0.119500
     21 HAA1         0.6100    -3.4200     3.3210 hn         1 BFB       0.315500
     22 HAA2         0.6550    -1.9710     4.3060 hn         1 BFB       0.315500
     23 HAZ          0.5350     0.2120     2.9410 h1         1 BFB       0.067700
     24 HAO1        -0.9990    -0.5060     4.7670 hc         1 BFB       0.059700
     25 HAO2        -2.3620    -0.4940     3.6560 hc         1 BFB       0.059700
     26 HAM1        -0.7020     1.9760     4.4160 hc         1 BFB       0.049700
     27 HAM2        -2.1350     1.9810     3.3810 hc         1 BFB       0.049700
     28 HAN1        -3.5310     1.1590     5.2820 h1         1 BFB       0.038200
     29 HAN2        -2.0940     1.1570     6.3320 h1         1 BFB       0.038200
     30 HNAR        -2.3170     3.7550     5.1490 hn         1 BFB       0.479000
     31 HAP1        -2.5580     5.5320     6.9790 hc         1 BFB       0.055367
     32 HAP2        -3.9860     5.5380     5.9250 hc         1 BFB       0.055367
     33 HAP3        -4.1800     5.4570     7.6820 hc         1 BFB       0.055367
     34 HNAC        -3.8860     1.8810     7.2600 hn         1 BFB       0.371400
     35 HNAS        -1.5630    -0.1220     0.8560 hn         1 BFB       0.326500
     36 HAK         -2.4540     0.3520    -0.6500 ha         1 BFB       0.124000
     37 HAL         -0.1510     4.0250    -0.3210 ha         1 BFB       0.124000
     38 HAJ         -1.1710     4.8280    -2.4270 ha         1 BFB       0.117500
     39 HAH         -2.8210     3.4130    -3.6460 ha         1 BFB       0.115000
     40 HAI         -3.4470     1.1800    -2.7410 ha         1 BFB       0.117500
@<TRIPOS>BOND
     1     1     2 2   
     2     2     3 1   
     3     2     4 1   
     4     3    21 1   
     5     3    22 1   
     6     4     5 1   
     7     4    12 1   
     8     4    23 1   
     9     5     6 1   
    10     5    24 1   
    11     5    25 1   
    12     6     7 1   
    13     6    26 1   
    14     6    27 1   
    15     7     8 1   
    16     7    28 1   
    17     7    29 1   
    18     8     9 1   
    19     8    30 1   
    20     9    10 1   
    21     9    11 2   
    22    10    31 1   
    23    10    32 1   
    24    10    33 1   
    25    11    34 1   
    26    12    13 1   
    27    12    35 1   
    28    13    14 2   
    29    13    15 1   
    30    15    16 ar  
    31    15    17 ar  
    32    16    20 ar  
    33    16    36 1   
    34    17    18 ar  
    35    17    37 1   
    36    18    19 ar  
    37    18    38 1   
    38    19    20 ar  
    39    19    39 1   
    40    20    40 1   
@<TRIPOS>SUBSTRUCTURE
     1 BFB         1 TEMP              0 ****  ****    0 ROOT
