@<TRIPOS>MOLECULE
BFE
   23    23     1     0     0
SMALL
abcg2


@<TRIPOS>ATOM
      1 C4          -1.5830     0.0510    -0.0950 ca         1 BFE      -0.152600
      2 C5          -2.5900     0.9390    -0.4690 ca         1 BFE      -0.073000
      3 C6          -3.9200     0.5510    -0.4230 ca         1 BFE      -0.119000
      4 C7          -0.1650     0.5200    -0.1680 c          1 BFE       0.611700
      5 C10          2.1060     0.2390     0.7050 c3         1 BFE       0.115000
      6 C2          -3.2560    -1.6340     0.3300 ca         1 BFE      -0.119000
      7 C3          -1.9260    -1.2410     0.2970 ca         1 BFE      -0.073000
      8 N9           0.6950    -0.0650     0.6840 ns         1 BFE      -0.508900
      9 C11          2.8700    -0.5540    -0.3500 c3         1 BFE       0.057600
     10 S12          4.6420    -0.1460    -0.2050 sh         1 BFE      -0.453800
     11 O8           0.1740     1.3950    -0.9530 o          1 BFE      -0.596100
     12 C1          -4.2560    -0.7370    -0.0240 ca         1 BFE      -0.089000
     13 H5          -2.3310     1.9400    -0.7870 ha         1 BFE       0.122000
     14 H6          -4.6950     1.2520    -0.7010 ha         1 BFE       0.117500
     15 H10          2.2510     1.3090     0.5500 h1         1 BFE       0.067700
     16 H10A         2.4800    -0.0020     1.7000 h1         1 BFE       0.067700
     17 H2          -3.5110    -2.6420     0.6270 ha         1 BFE       0.117500
     18 H3          -1.1610    -1.9640     0.5570 ha         1 BFE       0.122000
     19 HN9          0.3520    -0.7320     1.3550 hn         1 BFE       0.317500
     20 H11          2.7240    -1.6230    -0.1940 h1         1 BFE       0.067700
     21 H11A         2.5180    -0.2930    -1.3470 h1         1 BFE       0.067700
     22 HS12         5.0700    -0.8870    -1.2320 hs         1 BFE       0.216800
     23 H1          -5.2930    -1.0420     0.0080 ha         1 BFE       0.116000
@<TRIPOS>BOND
     1     1     2 ar  
     2     1     4 1   
     3     1     7 ar  
     4     2     3 ar  
     5     2    13 1   
     6     3    12 ar  
     7     3    14 1   
     8     4     8 1   
     9     4    11 2   
    10     5     8 1   
    11     5     9 1   
    12     5    15 1   
    13     5    16 1   
    14     6     7 ar  
    15     6    12 ar  
    16     6    17 1   
    17     7    18 1   
    18     8    19 1   
    19     9    10 1   
    20     9    20 1   
    21     9    21 1   
    22    10    22 1   
    23    12    23 1   
@<TRIPOS>SUBSTRUCTURE
     1 BFE         1 TEMP              0 ****  ****    0 ROOT
