@<TRIPOS>MOLECULE
BFE
   23    23     1     0     0
SMALL
No Charge or Current Charge


@<TRIPOS>ATOM
      1 C4          -1.6010     0.0600    -0.0120 ca         1 BFE      -0.152600
      2 C5          -2.5560     0.8210    -0.7270 ca         1 BFE      -0.073000
      3 C6          -3.9080     0.4380    -0.7550 ca         1 BFE      -0.119000
      4 C7          -0.1510     0.5030    -0.0050 c          1 BFE       0.611700
      5 C10          2.1760    -0.0200     0.8200 c3         1 BFE       0.115000
      6 C2          -3.3960    -1.4770     0.6450 ca         1 BFE      -0.119000
      7 C3          -2.0410    -1.0990     0.6760 ca         1 BFE      -0.073000
      8 N9           0.7340    -0.2750     0.7120 ns         1 BFE      -0.508900
      9 C11          2.9400    -0.3580    -0.4770 c3         1 BFE       0.057600
     10 S12          4.7740    -0.1100    -0.3440 sh         1 BFE      -0.453800
     11 O8           0.2280     1.5020    -0.6020 o          1 BFE      -0.596100
     12 C1          -4.3290    -0.7110    -0.0690 ca         1 BFE      -0.089000
     13 H5          -2.2520     1.7160    -1.2670 ha         1 BFE       0.122000
     14 H6          -4.6290     1.0350    -1.3090 ha         1 BFE       0.117500
     15 H10          2.3360     1.0360     1.0730 h1         1 BFE       0.067700
     16 H10A         2.5770    -0.6270     1.6420 h1         1 BFE       0.067700
     17 H2          -3.7210    -2.3690     1.1770 ha         1 BFE       0.117500
     18 H3          -1.3500    -1.7200     1.2400 ha         1 BFE       0.122000
     19 HN9          0.3510    -1.0820     1.1870 hn         1 BFE       0.317500
     20 H11          2.7520    -1.4060    -0.7430 h1         1 BFE       0.067700
     21 H11A         2.5660     0.2710    -1.2960 h1         1 BFE       0.067700
     22 HS12         5.0700    -0.4900    -1.6130 hs         1 BFE       0.216800
     23 H1          -5.3760    -1.0060    -0.0900 ha         1 BFE       0.116000
@<TRIPOS>BOND
     1     1     2 ar  
     2     1     4 1   
     3     1     7 ar  
     4     2     3 ar  
     5     2    13 1   
     6     3    12 ar  
     7     3    14 1   
     8     4     8 1   
     9     4    11 2   
    10     5     8 1   
    11     5     9 1   
    12     5    15 1   
    13     5    16 1   
    14     6     7 ar  
    15     6    12 ar  
    16     6    17 1   
    17     7    18 1   
    18     8    19 1   
    19     9    10 1   
    20     9    20 1   
    21     9    21 1   
    22    10    22 1   
    23    12    23 1   
@<TRIPOS>SUBSTRUCTURE
     1 BFE         1 TEMP              0 ****  ****    0 ROOT
