@<TRIPOS>MOLECULE
BFF
   56    58     1     0     0
SMALL
abcg2


@<TRIPOS>ATOM
      1 NAA         21.5240     0.4270   -24.7290 nt         1 BFF      -0.588000
      2 OAB         21.1390     2.3490   -25.8510 o          1 BFF      -0.683100
      3 OAC         22.1070     6.6560   -23.5680 o          1 BFF      -0.625100
      4 CAG         23.8310    -3.3650   -21.5280 ca         1 BFF      -0.149000
      5 CAH         21.8230    -3.2320   -20.1690 ca         1 BFF      -0.149000
      6 CAI         19.6800     8.5630   -24.6010 c3         1 BFF      -0.106400
      7 CAJ         18.3090     7.9810   -24.9940 c3         1 BFF      -0.068400
      8 CAK         18.3480     3.6250   -23.6210 c5         1 BFF      -0.082900
      9 CAL         18.5260     4.0980   -22.1610 c5         1 BFF      -0.082900
     10 CAM         20.8210     8.1980   -25.5490 c3         1 BFF       0.121000
     11 CAN         17.6190     7.2570   -23.8390 c3         1 BFF       0.171800
     12 CAO         18.0380     4.9100   -24.4160 c5         1 BFF       0.162300
     13 CAP         17.9130     5.4940   -22.1650 c5         1 BFF       0.162300
     14 CAQ         23.0610     0.3110   -20.8750 c3         1 BFF       0.232900
     15 NAR         22.8720     2.9400   -21.5180 nc         1 BFF      -0.645100
     16 SAV         22.6670     4.4910   -22.1400 ss         1 BFF       0.400100
     17 CAW         21.5300     1.7690   -24.8210 c          1 BFF       0.663700
     18 CAX         21.6210     6.1090   -24.5600 c          1 BFF       0.657100
     19 CAY         22.7800    -3.9690   -20.8510 ca         1 BFF       0.042100
     20 CAZ         23.8910    -1.9850   -21.5040 ca         1 BFF       0.218000
     21 CBA         21.9450    -1.8550   -20.1900 ca         1 BFF       0.218000
     22 CBB         22.4940     2.0580   -22.3990 cd         1 BFF       0.593300
     23 CBC         22.9690    -1.1790   -20.8450 ca         1 BFF      -0.174300
     24 CBD         22.0450     3.9250   -23.6520 cc         1 BFF       0.039600
     25 CBE         22.0100     2.5360   -23.6630 cd         1 BFF      -0.357600
     26 NBF         18.2820     6.0140   -23.4790 n3         1 BFF      -0.733600
     27 HNAA        21.1920    -0.1110   -25.5130 hn         1 BFF       0.327000
     28 HNAB        21.8330    -0.0450   -23.8940 hn         1 BFF       0.327000
     29 HAG         24.5780    -3.9360   -22.0600 ha         1 BFF       0.156000
     30 HAH         21.0030    -3.6970   -19.6420 ha         1 BFF       0.156000
     31 HAI         19.9490     8.2140   -23.6030 hc         1 BFF       0.062200
     32 HAIA        19.6270     9.6530   -24.5490 hc         1 BFF       0.062200
     33 HAJ         17.6510     8.7790   -25.3450 hc         1 BFF       0.036200
     34 HAJA        18.4140     7.2880   -25.8330 hc         1 BFF       0.036200
     35 HAKA        19.2400     3.1270   -23.9910 hc         1 BFF       0.049950
     36 HAL         18.0490     3.4330   -21.4400 hc         1 BFF       0.049950
     37 HALA        19.5860     4.1620   -21.9090 hc         1 BFF       0.049950
     38 HAM         20.5970     8.5150   -26.5680 h1         1 BFF       0.056700
     39 HAMA        21.7380     8.7000   -25.2400 h1         1 BFF       0.056700
     40 HAN         17.6220     7.9090   -22.9610 h1         1 BFF       0.031700
     41 HANA        16.5610     7.0690   -24.0950 h1         1 BFF       0.031700
     42 HAO         18.6540     5.0130   -25.3080 h1         1 BFF       0.032450
     43 HAOA        16.9850     4.9130   -24.7420 h1         1 BFF       0.032450
     44 HAP         16.8160     5.4300   -22.0490 h1         1 BFF       0.032450
     45 HAPA        18.2960     6.1430   -21.3750 h1         1 BFF       0.032450
     46 HAQ         24.0930     0.6480   -20.7850 h1         1 BFF       0.076700
     47 HAQA        22.4700     0.7620   -20.0810 h1         1 BFF       0.076700
     48 NAT         21.6280     4.7260   -24.6620 ns         1 BFF      -0.381100
     49 OAU         22.5410     0.7360   -22.1570 os         1 BFF      -0.478300
     50 FAD         24.9020    -1.3790   -22.1600 f          1 BFF      -0.163000
     51 FAE         21.0150    -1.1290   -19.5370 f          1 BFF      -0.163000
     52 BRAF        22.6440    -5.8700   -20.8620 br         1 BFF      -0.074100
     53 NAS         21.0810     6.7620   -25.6050 ns         1 BFF      -0.491900
     54 HAK         17.5230     2.9180   -23.7090 hc         1 BFF       0.049950
     55 HNAS        20.6120     6.2240   -26.3170 hn         1 BFF       0.316500
     56 HNAT        21.2650     4.2170   -25.4680 hn         1 BFF       0.374500
@<TRIPOS>BOND
     1     1    17 1   
     2     1    27 1   
     3     1    28 1   
     4     2    17 2   
     5     3    18 2   
     6     4    19 ar  
     7     4    20 ar  
     8     4    29 1   
     9     5    19 ar  
    10     5    21 ar  
    11     5    30 1   
    12     6     7 1   
    13     6    10 1   
    14     6    31 1   
    15     6    32 1   
    16     7    11 1   
    17     7    33 1   
    18     7    34 1   
    19     8     9 1   
    20     8    12 1   
    21     8    35 1   
    22     8    54 1   
    23     9    13 1   
    24     9    36 1   
    25     9    37 1   
    26    10    38 1   
    27    10    39 1   
    28    10    53 1   
    29    11    26 1   
    30    11    40 1   
    31    11    41 1   
    32    12    26 1   
    33    12    42 1   
    34    12    43 1   
    35    13    26 1   
    36    13    44 1   
    37    13    45 1   
    38    14    23 1   
    39    14    46 1   
    40    14    47 1   
    41    14    49 1   
    42    15    16 1   
    43    15    22 2   
    44    16    24 1   
    45    17    25 1   
    46    18    48 1   
    47    18    53 1   
    48    19    52 1   
    49    20    23 ar  
    50    20    50 1   
    51    21    23 ar  
    52    21    51 1   
    53    22    25 1   
    54    22    49 1   
    55    24    25 2   
    56    24    48 1   
    57    48    56 1   
    58    53    55 1   
@<TRIPOS>SUBSTRUCTURE
     1 BFF         1 TEMP              0 ****  ****    0 ROOT
