@<TRIPOS>MOLECULE
BFF
   56    58     1     0     0
SMALL
No Charge or Current Charge


@<TRIPOS>ATOM
      1 NAA         22.1340    -0.1090   -24.9490 nt         1 BFF      -0.588000
      2 OAB         21.5780     1.8170   -25.8770 o          1 BFF      -0.683100
      3 OAC         22.1420     6.1620   -23.4030 o          1 BFF      -0.625100
      4 CAG         24.9120    -4.1680   -22.2390 ca         1 BFF      -0.149000
      5 CAH         22.6600    -4.3860   -21.3540 ca         1 BFF      -0.149000
      6 CAI         19.7270     7.9140   -24.9330 c3         1 BFF      -0.106400
      7 CAJ         18.4350     7.1830   -25.3810 c3         1 BFF      -0.068400
      8 CAK         17.2250     6.2760   -21.1390 c5         1 BFF      -0.082900
      9 CAL         16.3660     7.5710   -20.9800 c5         1 BFF      -0.082900
     10 CAM         20.9950     7.4670   -25.6920 c3         1 BFF       0.121000
     11 CAN         17.1610     7.6470   -24.6340 c3         1 BFF       0.171800
     12 CAO         17.3350     6.0840   -22.6750 c5         1 BFF       0.162300
     13 CAP         16.0200     7.9660   -22.4390 c5         1 BFF       0.162300
     14 CAQ         23.6630    -0.6810   -21.2250 c3         1 BFF       0.232900
     15 NAR         23.3090     2.0370   -21.4550 nc         1 BFF      -0.645100
     16 SAV         22.9960     3.6440   -21.8480 ss         1 BFF       0.400100
     17 CAW         22.0210     1.2260   -24.9050 c          1 BFF       0.663700
     18 CAX         21.8110     5.4950   -24.3690 c          1 BFF       0.657100
     19 CAY         23.8100    -4.9700   -21.9070 ca         1 BFF       0.042100
     20 CAZ         24.8630    -2.7830   -22.0170 ca         1 BFF       0.218000
     21 CBA         22.6150    -3.0010   -21.1330 ca         1 BFF       0.218000
     22 CBB         22.9740     1.2860   -22.4860 cd         1 BFF       0.593300
     23 CBC         23.7160    -2.1840   -21.4590 ca         1 BFF      -0.174300
     24 CBD         22.3950     3.2520   -23.4650 cc         1 BFF       0.039600
     25 CBE         22.4510     1.8920   -23.6570 cd         1 BFF      -0.357600
     26 NBF         17.2070     7.4740   -23.1640 n3         1 BFF      -0.733600
     27 HNAA        21.8520    -0.6040   -25.7810 hn         1 BFF       0.327000
     28 HNAB        22.5000    -0.5980   -24.1450 hn         1 BFF       0.327000
     29 HAG         25.8040    -4.6150   -22.6690 ha         1 BFF       0.156000
     30 HAH         21.8030    -5.0020   -21.0960 ha         1 BFF       0.156000
     31 HAI         19.8810     7.7600   -23.8580 hc         1 BFF       0.062200
     32 HAIA        19.5950     8.9930   -25.0780 hc         1 BFF       0.062200
     33 HAJ         18.2860     7.3510   -26.4540 hc         1 BFF       0.036200
     34 HAJA        18.5540     6.1010   -25.2510 hc         1 BFF       0.036200
     35 HAKA        18.2160     6.4100   -20.6890 hc         1 BFF       0.049950
     36 HAL         15.4640     7.4070   -20.3790 hc         1 BFF       0.049950
     37 HALA        16.9430     8.3620   -20.4880 hc         1 BFF       0.049950
     38 HAM         20.8680     7.6670   -26.7640 h1         1 BFF       0.056700
     39 HAMA        21.8550     8.0530   -25.3430 h1         1 BFF       0.056700
     40 HAN         17.0000     8.7090   -24.8680 h1         1 BFF       0.031700
     41 HANA        16.3030     7.0980   -25.0450 h1         1 BFF       0.031700
     42 HAO         18.2890     5.6180   -22.9590 h1         1 BFF       0.032450
     43 HAOA        16.5180     5.4520   -23.0540 h1         1 BFF       0.032450
     44 HAP         15.1050     7.4610   -22.7810 h1         1 BFF       0.032450
     45 HAPA        15.8760     9.0490   -22.5510 h1         1 BFF       0.032450
     46 HAQ         24.6690    -0.3010   -21.0020 h1         1 BFF       0.076700
     47 HAQA        23.0280    -0.4600   -20.3560 h1         1 BFF       0.076700
     48 NAT         21.9230     4.1290   -24.4330 ns         1 BFF      -0.381100
     49 OAU         23.1340    -0.0700   -22.4160 os         1 BFF      -0.478300
     50 FAD         25.9350    -2.0290   -22.3480 f          1 BFF      -0.163000
     51 FAE         21.4960    -2.4580   -20.6030 f          1 BFF      -0.163000
     52 BrAF        23.8730    -6.8570   -22.2090 br         1 BFF      -0.074100
     53 NAS         21.2880     6.0410   -25.5140 ns         1 BFF      -0.491900
     54 HAK         16.7660     5.4060   -20.6560 hc         1 BFF       0.049950
     55 HNAS        21.0530     5.4110   -26.2700 hn         1 BFF       0.316500
     56 HNAT        21.6150     3.7070   -25.3030 hn         1 BFF       0.374500
@<TRIPOS>BOND
     1     1    17 1   
     2     1    27 1   
     3     1    28 1   
     4     2    17 2   
     5     3    18 2   
     6     4    19 ar  
     7     4    20 ar  
     8     4    29 1   
     9     5    19 ar  
    10     5    21 ar  
    11     5    30 1   
    12     6     7 1   
    13     6    10 1   
    14     6    31 1   
    15     6    32 1   
    16     7    11 1   
    17     7    33 1   
    18     7    34 1   
    19     8     9 1   
    20     8    12 1   
    21     8    35 1   
    22     8    54 1   
    23     9    13 1   
    24     9    36 1   
    25     9    37 1   
    26    10    38 1   
    27    10    39 1   
    28    10    53 1   
    29    11    26 1   
    30    11    40 1   
    31    11    41 1   
    32    12    26 1   
    33    12    42 1   
    34    12    43 1   
    35    13    26 1   
    36    13    44 1   
    37    13    45 1   
    38    14    23 1   
    39    14    46 1   
    40    14    47 1   
    41    14    49 1   
    42    15    16 1   
    43    15    22 2   
    44    16    24 1   
    45    17    25 1   
    46    18    48 1   
    47    18    53 1   
    48    19    52 1   
    49    20    23 ar  
    50    20    50 1   
    51    21    23 ar  
    52    21    51 1   
    53    22    25 1   
    54    22    49 1   
    55    24    25 2   
    56    24    48 1   
    57    48    56 1   
    58    53    55 1   
@<TRIPOS>SUBSTRUCTURE
     1 BFF         1 TEMP              0 ****  ****    0 ROOT
