@<TRIPOS>MOLECULE
BFG
   39    40     1     0     0
SMALL
No Charge or Current Charge


@<TRIPOS>ATOM
      1 C4          -1.0490    -0.8780    -0.1730 ca         1 BFG      -0.073800
      2 C5          -1.3090    -1.3790     1.1190 ca         1 BFG      -0.102500
      3 C6          -1.1900    -2.7530     1.3880 ca         1 BFG      -0.109250
      4 C7          -1.1610     0.6200    -0.4660 c3         1 BFG       0.041900
      5 C8          -2.5760     1.1250    -0.1460 ca         1 BFG      -0.073800
      6 C10         -4.2010     2.2580     1.2930 ca         1 BFG      -0.109250
      7 C13         -3.6100     0.8640    -1.0680 ca         1 BFG      -0.102500
      8 C15          1.3440     1.0030    -0.3210 c          1 BFG       0.599100
      9 C2          -0.5480    -3.1490    -0.9230 ca         1 BFG      -0.109250
     10 C3          -0.6670    -1.7750    -1.1930 ca         1 BFG      -0.102500
     11 C14         -0.0230     1.4060     0.2360 c3         1 BFG      -0.152400
     12 N17          2.1000     0.2010     0.5040 ns         1 BFG      -0.511900
     13 C18          3.4390    -0.3050     0.1810 c3         1 BFG       0.114000
     14 C19          4.5260     0.7870     0.2680 c3         1 BFG       0.054600
     15 S20          6.2380     0.1570    -0.0720 sh         1 BFG      -0.450800
     16 O16          1.7490     1.3850    -1.4100 o          1 BFG      -0.593100
     17 C12         -4.9230     1.2980    -0.8180 ca         1 BFG      -0.109250
     18 C11         -5.2190     1.9970     0.3630 ca         1 BFG      -0.108500
     19 C9          -2.8870     1.8240     1.0440 ca         1 BFG      -0.102500
     20 C1          -0.8090    -3.6390     0.3670 ca         1 BFG      -0.108500
     21 H5          -1.6060    -0.7030     1.9180 ha         1 BFG       0.110000
     22 H6          -1.3940    -3.1310     2.3870 ha         1 BFG       0.111750
     23 H7          -1.0120     0.7760    -1.5430 hc         1 BFG       0.080700
     24 H10         -4.4290     2.7950     2.2110 ha         1 BFG       0.111750
     25 H13         -3.3960     0.3190    -1.9850 ha         1 BFG       0.110000
     26 H2          -0.2520    -3.8340    -1.7150 ha         1 BFG       0.111750
     27 H3          -0.4580    -1.4090    -2.1950 ha         1 BFG       0.110000
     28 H14         -0.1720     2.4750     0.0470 hc         1 BFG       0.060700
     29 H14A        -0.0550     1.2050     1.3130 hc         1 BFG       0.060700
     30 HN17         1.6780    -0.0740     1.3830 hn         1 BFG       0.311500
     31 H18          3.6850    -1.1140     0.8810 h1         1 BFG       0.068700
     32 H18A         3.4270    -0.7290    -0.8320 h1         1 BFG       0.068700
     33 H19          4.3020     1.5830    -0.4540 h1         1 BFG       0.066200
     34 H19A         4.5140     1.2270     1.2730 h1         1 BFG       0.066200
     35 HS20         6.8700     1.3470     0.0910 hs         1 BFG       0.214800
     36 H12         -5.7110     1.0910    -1.5390 ha         1 BFG       0.111750
     37 H11         -6.2350     2.3320     0.5580 ha         1 BFG       0.112000
     38 H9          -2.1230     2.0340     1.7870 ha         1 BFG       0.110000
     39 H1          -0.7170    -4.7030     0.5750 ha         1 BFG       0.112000
@<TRIPOS>BOND
     1     1     2 ar  
     2     1     4 1   
     3     1    10 ar  
     4     2     3 ar  
     5     2    21 1   
     6     3    20 ar  
     7     3    22 1   
     8     4     5 1   
     9     4    11 1   
    10     4    23 1   
    11     5     7 ar  
    12     5    19 ar  
    13     6    18 ar  
    14     6    19 ar  
    15     6    24 1   
    16     7    17 ar  
    17     7    25 1   
    18     8    11 1   
    19     8    12 1   
    20     8    16 2   
    21     9    10 ar  
    22     9    20 ar  
    23     9    26 1   
    24    10    27 1   
    25    11    28 1   
    26    11    29 1   
    27    12    13 1   
    28    12    30 1   
    29    13    14 1   
    30    13    31 1   
    31    13    32 1   
    32    14    15 1   
    33    14    33 1   
    34    14    34 1   
    35    15    35 1   
    36    17    18 ar  
    37    17    36 1   
    38    18    37 1   
    39    19    38 1   
    40    20    39 1   
@<TRIPOS>SUBSTRUCTURE
     1 BFG         1 TEMP              0 ****  ****    0 ROOT
