@<TRIPOS>MOLECULE
BFG
   39    40     1     0     0
SMALL
bcc


@<TRIPOS>ATOM
      1 C4          -1.1370    -1.1740    -0.1920 ca         1 BFG      -0.073800
      2 C5          -0.6450    -1.7160     0.9910 ca         1 BFG      -0.120500
      3 C6          -0.7370    -3.0820     1.2410 ca         1 BFG      -0.127250
      4 C7          -1.0980     0.3090    -0.4980 c3         1 BFG       0.041900
      5 C8          -2.4460     0.9500    -0.2420 ca         1 BFG      -0.073800
      6 C10         -4.2630     1.5190     1.2480 ca         1 BFG      -0.127250
      7 C13         -3.1130     1.6090    -1.2690 ca         1 BFG      -0.120500
      8 C15          1.3870     0.5740    -0.1210 c          1 BFG       0.666100
      9 C2          -1.8140    -3.3960    -0.8770 ca         1 BFG      -0.127250
     10 C3          -1.7200    -2.0340    -1.1210 ca         1 BFG      -0.120500
     11 C14          0.0020     1.0660     0.2470 c3         1 BFG      -0.152400
     12 N17          2.2790     0.5710     0.8850 ns         1 BFG      -0.578900
     13 C18          3.6660     0.2150     0.7070 c3         1 BFG       0.114000
     14 C19          4.4880     1.3810     0.1680 c3         1 BFG       0.006700
     15 S20          6.2060     0.8130    -0.0620 sh         1 BFG      -0.402900
     16 O16          1.6700     0.2270    -1.2580 o          1 BFG      -0.593100
     17 C12         -4.3430     2.2180    -1.0460 ca         1 BFG      -0.127250
     18 C11         -4.9210     2.1750     0.2140 ca         1 BFG      -0.126500
     19 C9          -3.0370     0.9100     1.0200 ca         1 BFG      -0.120500
     20 C1          -1.3230    -3.9260     0.3100 ca         1 BFG      -0.126500
     21 H5          -0.1770    -1.0860     1.7360 ha         1 BFG       0.128000
     22 H6          -0.3450    -3.4810     2.1670 ha         1 BFG       0.129750
     23 H7          -0.8920     0.4120    -1.5660 hc         1 BFG       0.080700
     24 H10         -4.7060     1.4810     2.2340 ha         1 BFG       0.129750
     25 H13         -2.6680     1.6460    -2.2560 ha         1 BFG       0.128000
     26 H2          -2.2670    -4.0440    -1.6160 ha         1 BFG       0.129750
     27 H3          -2.1050    -1.6310    -2.0510 ha         1 BFG       0.128000
     28 H14         -0.0540     2.1220    -0.0350 hc         1 BFG       0.060700
     29 H14A        -0.1540     1.0390     1.3280 hc         1 BFG       0.060700
     30 HN17         1.9910     0.9040     1.7900 hn         1 BFG       0.311500
     31 H18          4.0560    -0.1020     1.6740 h1         1 BFG       0.068700
     32 H18A         3.7330    -0.6390     0.0320 h1         1 BFG       0.068700
     33 H19          4.0830     1.7200    -0.7840 h1         1 BFG       0.066200
     34 H19A         4.4710     2.2110     0.8740 h1         1 BFG       0.066200
     35 HS20         6.7320     1.9910    -0.4110 hs         1 BFG       0.214800
     36 H12         -4.8460     2.7260    -1.8590 ha         1 BFG       0.129750
     37 H11         -5.8780     2.6480     0.3920 ha         1 BFG       0.130000
     38 H9          -2.5420     0.3950     1.8350 ha         1 BFG       0.128000
     39 H1          -1.3930    -4.9890     0.5050 ha         1 BFG       0.130000
@<TRIPOS>BOND
     1     1     2 ar  
     2     1     4 1   
     3     1    10 ar  
     4     2     3 ar  
     5     2    21 1   
     6     3    20 ar  
     7     3    22 1   
     8     4     5 1   
     9     4    11 1   
    10     4    23 1   
    11     5     7 ar  
    12     5    19 ar  
    13     6    18 ar  
    14     6    19 ar  
    15     6    24 1   
    16     7    17 ar  
    17     7    25 1   
    18     8    11 1   
    19     8    12 1   
    20     8    16 2   
    21     9    10 ar  
    22     9    20 ar  
    23     9    26 1   
    24    10    27 1   
    25    11    28 1   
    26    11    29 1   
    27    12    13 1   
    28    12    30 1   
    29    13    14 1   
    30    13    31 1   
    31    13    32 1   
    32    14    15 1   
    33    14    33 1   
    34    14    34 1   
    35    15    35 1   
    36    17    18 ar  
    37    17    36 1   
    38    18    37 1   
    39    19    38 1   
    40    20    39 1   
@<TRIPOS>SUBSTRUCTURE
     1 BFG         1 TEMP              0 ****  ****    0 ROOT
