@<TRIPOS>MOLECULE
BFH
   29    31     1     0     0
SMALL
No Charge or Current Charge


@<TRIPOS>ATOM
      1 O1           7.5050    73.6990    27.6570 o          1 BFH      -0.734500
      2 C2           6.3600    73.9300    27.2960 c          1 BFH       0.706000
      3 O3           6.0700    74.2190    26.1430 o          1 BFH      -0.734500
      4 C4           5.2650    73.9250    28.3790 c3         1 BFH      -0.103400
      5 N5           3.8750    73.9780    27.8740 na         1 BFH       0.015300
      6 C6           3.0620    72.8370    27.6490 cc         1 BFH      -0.081300
      7 C7           1.7670    73.3390    27.6610 cd         1 BFH      -0.265200
      8 C8           1.7670    74.7600    27.8420 ca         1 BFH      -0.140800
      9 C9           0.6910    75.6470    27.9090 ca         1 BFH      -0.038000
     10 C10          0.9800    77.0130    28.0540 ca         1 BFH      -0.198000
     11 C11          2.3210    77.4600    28.0850 ca         1 BFH      -0.037000
     12 C12          2.5670    78.8430    28.1890 ca         1 BFH      -0.130000
     13 C13          3.8800    79.3320    28.1810 ca         1 BFH      -0.146000
     14 C14          4.9540    78.4420    28.0530 ca         1 BFH      -0.153000
     15 C15          4.7230    77.0590    27.9530 ca         1 BFH      -0.066000
     16 C16          3.4060    76.5380    27.9950 ca         1 BFH       0.017000
     17 C17          3.0850    75.1490    27.9200 ca         1 BFH      -0.055200
     18 C18          3.4080    71.3880    27.4820 c          1 BFH       0.732200
     19 O19          2.5000    70.5810    27.3300 o          1 BFH      -0.728000
     20 O20          4.5820    71.0450    27.4910 o          1 BFH      -0.728000
     21 H4           5.3860    73.0000    28.9530 h1         1 BFH       0.069200
     22 H4A          5.4440    74.7430    29.0830 h1         1 BFH       0.069200
     23 H7           0.8760    72.7280    27.5360 ha         1 BFH       0.189000
     24 H9          -0.3350    75.2930    27.8510 ha         1 BFH       0.081000
     25 H10          0.1620    77.7260    28.1160 ha         1 BFH       0.072000
     26 H12          1.7380    79.5420    28.2670 ha         1 BFH       0.076000
     27 H13          4.0640    80.4020    28.2570 ha         1 BFH       0.074000
     28 H14          5.9720    78.8240    28.0220 ha         1 BFH       0.090000
     29 H15          5.5840    76.4220    27.8150 ha         1 BFH       0.150000
@<TRIPOS>BOND
     1     1     2 1   
     2     2     3 1   
     3     2     4 1   
     4     4     5 1   
     5     4    21 1   
     6     4    22 1   
     7     5     6 1   
     8     5    17 1   
     9     6     7 2   
    10     6    18 1   
    11     7     8 1   
    12     7    23 1   
    13     8     9 ar  
    14     8    17 ar  
    15     9    10 ar  
    16     9    24 1   
    17    10    11 ar  
    18    10    25 1   
    19    11    12 ar  
    20    11    16 ar  
    21    12    13 ar  
    22    12    26 1   
    23    13    14 ar  
    24    13    27 1   
    25    14    15 ar  
    26    14    28 1   
    27    15    16 ar  
    28    15    29 1   
    29    16    17 ar  
    30    18    19 1   
    31    18    20 1   
@<TRIPOS>SUBSTRUCTURE
     1 BFH         1 TEMP              0 ****  ****    0 ROOT
