@<TRIPOS>MOLECULE
BFH
   29    31     1     0     0
SMALL
abcg2


@<TRIPOS>ATOM
      1 O1           7.2920    74.5160    27.0710 o          1 BFH      -0.734500
      2 C2           6.0690    74.2960    26.8820 c          1 BFH       0.706000
      3 O3           5.4530    74.3420    25.7940 o          1 BFH      -0.734500
      4 C4           5.2940    73.8820    28.1550 c3         1 BFH      -0.103400
      5 N5           3.8470    73.9440    28.0570 na         1 BFH       0.015300
      6 C6           3.0180    72.8420    27.8610 cc         1 BFH      -0.081300
      7 C7           1.7300    73.2930    27.6710 cd         1 BFH      -0.265200
      8 C8           1.7490    74.7070    27.7560 ca         1 BFH      -0.140800
      9 C9           0.7180    75.6730    27.6690 ca         1 BFH      -0.038000
     10 C10          1.0310    76.9940    27.7910 ca         1 BFH      -0.198000
     11 C11          2.3780    77.4250    27.9960 ca         1 BFH      -0.037000
     12 C12          2.6620    78.8030    28.1130 ca         1 BFH      -0.130000
     13 C13          3.9450    79.2620    28.2980 ca         1 BFH      -0.146000
     14 C14          5.0020    78.3400    28.3670 ca         1 BFH      -0.153000
     15 C15          4.7650    76.9880    28.2610 ca         1 BFH      -0.066000
     16 C16          3.4550    76.4770    28.0830 ca         1 BFH       0.017000
     17 C17          3.0910    75.0970    27.9780 ca         1 BFH      -0.055200
     18 C18          3.4300    71.3880    27.9340 c          1 BFH       0.732200
     19 O19          2.6350    70.5760    27.3980 o          1 BFH      -0.728000
     20 O20          4.4920    71.0880    28.5410 o          1 BFH      -0.728000
     21 H4           5.5420    72.8450    28.3670 h1         1 BFH       0.069200
     22 H4A          5.6320    74.4760    29.0010 h1         1 BFH       0.069200
     23 H7           0.8700    72.6630    27.5170 ha         1 BFH       0.189000
     24 H9          -0.3050    75.3560    27.5050 ha         1 BFH       0.081000
     25 H10          0.2590    77.7520    27.7330 ha         1 BFH       0.072000
     26 H12          1.8360    79.5030    28.0500 ha         1 BFH       0.076000
     27 H13          4.1410    80.3230    28.3850 ha         1 BFH       0.074000
     28 H14          6.0180    78.6920    28.5010 ha         1 BFH       0.090000
     29 H15          5.6090    76.3220    28.3080 ha         1 BFH       0.150000
@<TRIPOS>BOND
     1     1     2 1   
     2     2     3 1   
     3     2     4 1   
     4     4     5 1   
     5     4    21 1   
     6     4    22 1   
     7     5     6 1   
     8     5    17 1   
     9     6     7 2   
    10     6    18 1   
    11     7     8 1   
    12     7    23 1   
    13     8     9 ar  
    14     8    17 ar  
    15     9    10 ar  
    16     9    24 1   
    17    10    11 ar  
    18    10    25 1   
    19    11    12 ar  
    20    11    16 ar  
    21    12    13 ar  
    22    12    26 1   
    23    13    14 ar  
    24    13    27 1   
    25    14    15 ar  
    26    14    28 1   
    27    15    16 ar  
    28    15    29 1   
    29    16    17 ar  
    30    18    19 1   
    31    18    20 1   
@<TRIPOS>SUBSTRUCTURE
     1 BFH         1 TEMP              0 ****  ****    0 ROOT
