@<TRIPOS>MOLECULE
BFI
   39    42     1     0     0
SMALL
No Charge or Current Charge


@<TRIPOS>ATOM
      1 C2           1.0430    -0.6680    -4.2490 ca         1 BFI      -0.161000
      2 C3           3.1680     0.2100    -2.6450 ca         1 BFI      -0.018000
      3 C4           0.7700    -0.0010    -3.0360 ca         1 BFI       0.003700
      4 C5           2.3670    -0.8780    -4.6590 ca         1 BFI       0.213000
      5 C6           3.4310    -0.4420    -3.8610 ca         1 BFI      -0.158000
      6 C7           1.8350     0.4360    -2.2330 ca         1 BFI      -0.160600
      7 C8          -0.6490     0.1860    -2.5260 c5         1 BFI      -0.187700
      8 F9           2.6170    -1.5160    -5.8230 f          1 BFI      -0.163000
      9 C11          1.5500     1.1360    -0.9340 c          1 BFI       0.595600
     10 N14         -2.6370    -0.6170    -3.3010 ns         1 BFI      -0.468500
     11 O16          2.4510     1.3480    -0.1330 o          1 BFI      -0.503000
     12 N17          0.2270     1.5530    -0.6860 n          1 BFI      -0.365400
     13 C18         -1.0440    -1.1450    -1.7660 c5         1 BFI      -0.155400
     14 C21         -2.4760    -1.4290    -2.2300 c          1 BFI       0.584000
     15 C22         -0.8440     1.3990    -1.5890 c          1 BFI       0.596000
     16 C23         -0.0210     2.3290     0.5610 c3         1 BFI       0.145300
     17 C25         -0.1290     1.4410     1.7990 ca         1 BFI      -0.133300
     18 C27         -0.3050    -0.2060     4.0840 ca         1 BFI       0.010100
     19 C28          0.9340     1.3890     2.7250 ca         1 BFI      -0.057000
     20 C29         -1.2810     0.6610     2.0350 ca         1 BFI       0.183000
     21 C30         -1.3700    -0.1590     3.1700 ca         1 BFI      -0.131000
     22 C31          0.8450     0.5680     3.8630 ca         1 BFI      -0.102000
     23 F33         -2.3170     0.6910     1.1680 f          1 BFI      -0.177000
     24 Br36        -0.4230    -1.3240     5.6310 br         1 BFI      -0.082100
     25 C39         -1.7220     0.3320    -3.6150 c          1 BFI       0.587000
     26 H2           0.2370    -1.0380    -4.8770 ha         1 BFI       0.140000
     27 H3           4.0010     0.5440    -2.0290 ha         1 BFI       0.147000
     28 H6           4.4550    -0.6130    -4.1810 ha         1 BFI       0.145000
     29 H14         -3.5020    -0.6520    -3.8190 hn         1 BFI       0.352500
     30 H181        -0.4420    -1.9920    -2.1140 hc         1 BFI       0.100700
     31 H182        -0.9790    -1.1290    -0.6730 hc         1 BFI       0.100700
     32 H231        -0.9380     2.9270     0.4810 h1         1 BFI       0.084200
     33 H232         0.7910     3.0560     0.7000 h1         1 BFI       0.084200
     34 H28          1.8320     1.9810     2.5630 ha         1 BFI       0.129000
     35 H30         -2.2620    -0.7560     3.3380 ha         1 BFI       0.148000
     36 H31          1.6700     0.5320     4.5710 ha         1 BFI       0.137000
     37 O13         -1.8410     2.1080    -1.5560 o          1 BFI      -0.505000
     38 O15         -3.3630    -2.0780    -1.7030 o          1 BFI      -0.481000
     39 O37         -1.7790     1.0790    -4.5770 o          1 BFI      -0.478000
@<TRIPOS>BOND
     1     1     3 ar  
     2     1     4 ar  
     3     1    26 1   
     4     2     5 ar  
     5     2     6 ar  
     6     2    27 1   
     7     3     6 ar  
     8     3     7 1   
     9     4     5 ar  
    10     4     8 1   
    11     5    28 1   
    12     6     9 1   
    13     7    13 1   
    14     7    15 1   
    15     7    25 1   
    16     9    11 2   
    17     9    12 1   
    18    10    14 1   
    19    10    25 1   
    20    10    29 1   
    21    12    15 1   
    22    12    16 1   
    23    13    14 1   
    24    13    30 1   
    25    13    31 1   
    26    14    38 2   
    27    15    37 2   
    28    16    17 1   
    29    16    32 1   
    30    16    33 1   
    31    17    19 ar  
    32    17    20 ar  
    33    18    21 ar  
    34    18    22 ar  
    35    18    24 1   
    36    19    22 ar  
    37    19    34 1   
    38    20    21 ar  
    39    20    23 1   
    40    21    35 1   
    41    22    36 1   
    42    25    39 2   
@<TRIPOS>SUBSTRUCTURE
     1 BFI         1 TEMP              0 ****  ****    0 ROOT
