@<TRIPOS>MOLECULE
BFI
   39    42     1     0     0
SMALL
bcc


@<TRIPOS>ATOM
      1 C2           1.0130    -1.0570    -3.9040 ca         1 BFI      -0.179000
      2 C3           2.9720     0.0180    -2.2540 ca         1 BFI      -0.036000
      3 C4           0.6460    -0.2630    -2.8250 ca         1 BFI       0.003700
      4 C5           2.3530    -1.2940    -4.1290 ca         1 BFI       0.177900
      5 C6           3.3480    -0.7700    -3.3210 ca         1 BFI      -0.176000
      6 C7           1.6240     0.2770    -2.0020 ca         1 BFI      -0.160600
      7 C8          -0.7990     0.0300    -2.5770 c5         1 BFI      -0.187700
      8 F9           2.7010    -2.0540    -5.1680 f          1 BFI      -0.127900
      9 C11          1.2790     1.1210    -0.8480 c          1 BFI       0.738100
     10 N14         -2.5890     0.1930    -4.0850 ns         1 BFI      -0.602500
     11 O16          2.1170     1.6060    -0.1250 o          1 BFI      -0.578500
     12 N17         -0.0690     1.3550    -0.5890 n          1 BFI      -0.499400
     13 C18         -1.7020    -1.2110    -2.4510 c5         1 BFI      -0.155400
     14 C21         -2.9040    -0.9010    -3.3070 c          1 BFI       0.726500
     15 C22         -1.0990     0.9360    -1.3890 c          1 BFI       0.738500
     16 C23         -0.3750     2.1440     0.6080 c3         1 BFI       0.145300
     17 C25         -0.0460     1.4090     1.8770 ca         1 BFI      -0.133300
     18 C27          0.5210     0.0750     4.2610 ca         1 BFI       0.010100
     19 C28          0.8350     1.9430     2.8090 ca         1 BFI      -0.075000
     20 C29         -0.6240     0.1900     2.1900 ca         1 BFI       0.147900
     21 C30         -0.3600    -0.4990     3.3570 ca         1 BFI      -0.149000
     22 C31          1.1230     1.2970     4.0020 ca         1 BFI      -0.120000
     23 F33         -1.4860    -0.3590     1.3190 f          1 BFI      -0.141900
     24 BR36         0.9030    -0.8310     5.8680 br         1 BFI      -0.082100
     25 C39         -1.4010     0.7850    -3.7800 c          1 BFI       0.729500
     26 H2           0.2760    -1.4880    -4.5710 ha         1 BFI       0.158000
     27 H3           3.7310     0.4350    -1.6070 ha         1 BFI       0.165000
     28 H6           4.3900    -0.9750    -3.5260 ha         1 BFI       0.163000
     29 H14         -3.2130     0.5600    -4.7940 hn         1 BFI       0.352500
     30 H181        -1.2160    -2.0990    -2.8610 hc         1 BFI       0.100700
     31 H182        -1.9920    -1.4530    -1.4300 hc         1 BFI       0.100700
     32 H231        -1.4300     2.4000     0.5740 h1         1 BFI       0.084200
     33 H232         0.1830     3.0780     0.5700 h1         1 BFI       0.084200
     34 H28          1.3100     2.8930     2.5970 ha         1 BFI       0.147000
     35 H30         -0.8380    -1.4520     3.5430 ha         1 BFI       0.166000
     36 H31          1.8120     1.7450     4.7050 ha         1 BFI       0.155000
     37 O13         -2.2490     1.2500    -1.1860 o          1 BFI      -0.580500
     38 O15         -3.9410    -1.5060    -3.3580 o          1 BFI      -0.556500
     39 O37         -0.9070     1.7360    -4.3200 o          1 BFI      -0.553500
@<TRIPOS>BOND
     1     1     3 ar  
     2     1     4 ar  
     3     1    26 1   
     4     2     5 ar  
     5     2     6 ar  
     6     2    27 1   
     7     3     6 ar  
     8     3     7 1   
     9     4     5 ar  
    10     4     8 1   
    11     5    28 1   
    12     6     9 1   
    13     7    13 1   
    14     7    15 1   
    15     7    25 1   
    16     9    11 2   
    17     9    12 1   
    18    10    14 1   
    19    10    25 1   
    20    10    29 1   
    21    12    15 1   
    22    12    16 1   
    23    13    14 1   
    24    13    30 1   
    25    13    31 1   
    26    14    38 2   
    27    15    37 2   
    28    16    17 1   
    29    16    32 1   
    30    16    33 1   
    31    17    19 ar  
    32    17    20 ar  
    33    18    21 ar  
    34    18    22 ar  
    35    18    24 1   
    36    19    22 ar  
    37    19    34 1   
    38    20    21 ar  
    39    20    23 1   
    40    21    35 1   
    41    22    36 1   
    42    25    39 2   
@<TRIPOS>SUBSTRUCTURE
     1 BFI         1 TEMP              0 ****  ****    0 ROOT
