@<TRIPOS>MOLECULE
BFK
   64    67     1     0     0
SMALL
abcg2


@<TRIPOS>ATOM
      1 C1          -3.3360    -2.7740    -0.3910 ca         1 BFK      -0.288300
      2 C2          -2.0510    -3.2470    -0.4550 ca         1 BFK       0.170900
      3 C3          -1.1730    -1.1870    -0.3190 ca         1 BFK       0.417900
      4 C7          -4.8020     2.9040    -0.0000 ca         1 BFK      -0.091000
      5 C8          -6.1650     3.0960     0.1430 ca         1 BFK      -0.109000
      6 C9          -7.0110     1.9890     0.1690 ca         1 BFK      -0.057300
      7 C10         -6.4680     0.7210     0.0450 ca         1 BFK      -0.164000
      8 C11         -8.4930     2.1540     0.3640 c3         1 BFK       0.208900
      9 C12          1.2430    -0.5120    -0.2700 ca         1 BFK       0.342000
     10 C13          2.0360     0.6390    -0.1680 ca         1 BFK      -0.196000
     11 C14          3.4280     0.5850    -0.1510 ca         1 BFK       0.315000
     12 C15          4.0400    -0.6760    -0.2330 ca         1 BFK      -0.101000
     13 C16          3.2400    -1.7960    -0.3120 ca         1 BFK      -0.202500
     14 C19          5.2920     1.7360     0.8960 c6         1 BFK       0.197800
     15 C20          6.2620     2.8680     0.6260 c6         1 BFK       0.157300
     16 C21          4.5550     4.1220    -0.4200 c6         1 BFK       0.157300
     17 C22          3.5470     3.0150    -0.1720 c6         1 BFK       0.197800
     18 O2           3.0910    -4.3640    -0.9080 o          1 BFK      -0.522000
     19 S            4.0350    -3.3870    -0.3670 sy         1 BFK       1.051500
     20 O1           5.3340    -3.2380    -1.0200 o          1 BFK      -0.522000
     21 C18          4.3110    -3.7720     1.3470 c3         1 BFK      -0.337100
     22 N4           4.2120     1.7300    -0.0850 nh         1 BFK      -0.786400
     23 N5           5.5720     4.1390     0.6080 n3         1 BFK      -0.715600
     24 C23          6.4840     5.2470     0.4440 c3         1 BFK       0.152100
     25 C17          1.8540    -1.7640    -0.3380 ca         1 BFK      -0.091000
     26 N3          -0.1250    -0.3070    -0.2760 nu         1 BFK      -0.933900
     27 N           -0.9530    -2.4830    -0.4210 nb         1 BFK      -0.250000
     28 N1          -2.3650    -0.5930    -0.2510 nb         1 BFK      -0.316000
     29 C4          -3.4390    -1.3620    -0.2840 ca         1 BFK       0.428900
     30 C           -4.5280    -3.6750    -0.4290 c3         1 BFK      -0.027800
     31 N2          -4.6750    -0.8060    -0.2100 nu         1 BFK      -0.933900
     32 C5          -5.0880     0.5210    -0.0920 ca         1 BFK       0.307000
     33 O           -8.9590     3.2030    -0.4530 oh         1 BFK      -0.653000
     34 C6          -4.2490     1.6350    -0.1170 ca         1 BFK      -0.126000
     35 H1          -1.8810    -4.3160    -0.5380 h4         1 BFK       0.026100
     36 H2          -4.1390     3.7600    -0.0220 ha         1 BFK       0.113000
     37 H3          -6.5660     4.0970     0.2380 ha         1 BFK       0.126000
     38 H4          -7.1300    -0.1390     0.0540 ha         1 BFK       0.106000
     39 H5          -8.9970     1.2060     0.1370 h1         1 BFK       0.025200
     40 H6          -8.6850     2.3640     1.4240 h1         1 BFK       0.025200
     41 H7           1.5290     1.5910    -0.0820 ha         1 BFK       0.114000
     42 H8           5.1170    -0.7690    -0.2630 ha         1 BFK       0.139000
     43 H9           5.8430     0.7990     0.8600 h1         1 BFK       0.044700
     44 H10          4.8850     1.8370     1.9120 h1         1 BFK       0.044700
     45 H11          7.0140     2.8740     1.4190 h1         1 BFK       0.041950
     46 H12          6.7910     2.6750    -0.3240 h1         1 BFK       0.041950
     47 H13          4.9930     3.9940    -1.4260 h1         1 BFK       0.041950
     48 H14          4.0240     5.0770    -0.4210 h1         1 BFK       0.041950
     49 H15          2.9760     3.2410     0.7400 h1         1 BFK       0.044700
     50 H16          2.8450     3.0050    -1.0070 h1         1 BFK       0.044700
     51 H17          4.7870    -4.7520     1.3860 h1         1 BFK       0.101367
     52 H18          4.9630    -3.0220     1.7890 h1         1 BFK       0.101367
     53 H19          3.3570    -3.8010     1.8690 h1         1 BFK       0.101367
     54 H21          5.9340     6.1890     0.4640 h1         1 BFK       0.033033
     55 H22          7.2040     5.2630     1.2630 h1         1 BFK       0.033033
     56 H23          7.0500     5.2100    -0.5000 h1         1 BFK       0.033033
     57 H24          1.2630    -2.6620    -0.4120 ha         1 BFK       0.178000
     58 H25         -0.4210     0.6550    -0.2010 hn         1 BFK       0.507000
     59 H26         -5.1390    -3.5890     0.4720 hc         1 BFK       0.041367
     60 H27         -5.1770    -3.4660    -1.2840 hc         1 BFK       0.041367
     61 H28         -4.2150    -4.7150    -0.5080 hc         1 BFK       0.041367
     62 H29         -5.4360    -1.4670    -0.2170 hn         1 BFK       0.501000
     63 H30         -9.8500     3.4280    -0.1690 ho         1 BFK       0.443000
     64 H31         -3.1840     1.5200    -0.2240 ha         1 BFK       0.145000
@<TRIPOS>BOND
     1     1     2 ar  
     2     1    29 ar  
     3     1    30 1   
     4     2    27 ar  
     5     2    35 1   
     6     3    26 1   
     7     3    27 ar  
     8     3    28 ar  
     9     4     5 ar  
    10     4    34 ar  
    11     4    36 1   
    12     5     6 ar  
    13     5    37 1   
    14     6     7 ar  
    15     6     8 1   
    16     7    32 ar  
    17     7    38 1   
    18     8    33 1   
    19     8    39 1   
    20     8    40 1   
    21     9    10 ar  
    22     9    25 ar  
    23     9    26 1   
    24    10    11 ar  
    25    10    41 1   
    26    11    12 ar  
    27    11    22 1   
    28    12    13 ar  
    29    12    42 1   
    30    13    19 1   
    31    13    25 ar  
    32    14    15 1   
    33    14    22 1   
    34    14    43 1   
    35    14    44 1   
    36    15    23 1   
    37    15    45 1   
    38    15    46 1   
    39    16    17 1   
    40    16    23 1   
    41    16    47 1   
    42    16    48 1   
    43    17    22 1   
    44    17    49 1   
    45    17    50 1   
    46    18    19 2   
    47    19    20 2   
    48    19    21 1   
    49    21    51 1   
    50    21    52 1   
    51    21    53 1   
    52    23    24 1   
    53    24    54 1   
    54    24    55 1   
    55    24    56 1   
    56    25    57 1   
    57    26    58 1   
    58    28    29 ar  
    59    29    31 1   
    60    30    59 1   
    61    30    60 1   
    62    30    61 1   
    63    31    32 1   
    64    31    62 1   
    65    32    34 ar  
    66    33    63 1   
    67    34    64 1   
@<TRIPOS>SUBSTRUCTURE
     1 BFK         1 TEMP              0 ****  ****    0 ROOT
