@<TRIPOS>MOLECULE
BFK
   64    67     1     0     0
SMALL
No Charge or Current Charge


@<TRIPOS>ATOM
      1 C1          -3.3310    -2.4920    -1.4450 ca         1 BFK      -0.288300
      2 C2          -2.0110    -2.9540    -1.6000 ca         1 BFK       0.170900
      3 C3          -1.2310    -1.0610    -0.5840 ca         1 BFK       0.417900
      4 C7          -5.1150     2.9430     0.0450 ca         1 BFK      -0.091000
      5 C8          -6.3790     2.9650     0.6570 ca         1 BFK      -0.109000
      6 C9          -7.0980     1.7700     0.8400 ca         1 BFK      -0.057300
      7 C10         -6.5350     0.5520     0.4070 ca         1 BFK      -0.164000
      8 C11         -8.4720     1.7920     1.5000 c3         1 BFK       0.208900
      9 C12          1.2020    -0.4480    -0.0230 ca         1 BFK       0.342000
     10 C13          2.0090     0.6980    -0.0390 ca         1 BFK      -0.196000
     11 C14          3.4070     0.5990     0.0820 ca         1 BFK       0.315000
     12 C15          3.9940    -0.6710     0.2290 ca         1 BFK      -0.101000
     13 C16          3.1980    -1.8360     0.2610 ca         1 BFK      -0.202500
     14 C19          5.1550     2.0380     1.2010 c6         1 BFK       0.197800
     15 C20          6.3410     2.9720     0.7900 c6         1 BFK       0.157300
     16 C21          5.0220     3.9040    -1.0470 c6         1 BFK       0.157300
     17 C22          3.8100     2.9890    -0.6730 c6         1 BFK       0.197800
     18 O2           3.0340    -4.4920    -0.0120 o          1 BFK      -0.522000
     19 S            3.9610    -3.4630     0.4780 sy         1 BFK       1.051500
     20 O1           5.3520    -3.4040     0.0090 o          1 BFK      -0.522000
     21 C18          4.0310    -3.6450     2.2600 c3         1 BFK      -0.337100
     22 N4           4.2280     1.7510     0.0600 nh         1 BFK      -0.786400
     23 N5           5.8850     4.2330     0.1290 n3         1 BFK      -0.715600
     24 C23          7.0050     5.1320    -0.2190 c3         1 BFK       0.152100
     25 C17          1.7980    -1.7130     0.1420 ca         1 BFK      -0.091000
     26 N3          -0.1820    -0.2760    -0.1320 nu         1 BFK      -0.933900
     27 N           -0.9570    -2.2370    -1.1730 nb         1 BFK      -0.250000
     28 N1          -2.4420    -0.5250    -0.3920 nb         1 BFK      -0.316000
     29 C4          -3.4910    -1.2370    -0.8290 ca         1 BFK       0.428900
     30 C           -4.5080    -3.3320    -1.9370 c3         1 BFK      -0.027800
     31 N2          -4.7630    -0.7190    -0.6130 nu         1 BFK      -0.933900
     32 C5          -5.2640     0.5170    -0.1910 ca         1 BFK       0.307000
     33 O           -9.4960     1.9810     0.5160 oh         1 BFK      -0.653000
     34 C6          -4.5610     1.7240    -0.3810 ca         1 BFK      -0.126000
     35 H1          -1.7920    -3.9110    -2.0710 h4         1 BFK       0.026100
     36 H2          -4.5670     3.8710    -0.1050 ha         1 BFK       0.113000
     37 H3          -6.8030     3.9130     0.9830 ha         1 BFK       0.126000
     38 H4          -7.0900    -0.3720     0.5450 ha         1 BFK       0.106000
     39 H5          -8.6320     0.8480     2.0380 h1         1 BFK       0.025200
     40 H6          -8.5040     2.6010     2.2420 h1         1 BFK       0.025200
     41 H7           1.5430     1.6710    -0.1430 ha         1 BFK       0.114000
     42 H8           5.0750    -0.7480     0.3110 ha         1 BFK       0.139000
     43 H9           5.5750     1.1070     1.6080 h1         1 BFK       0.044700
     44 H10          4.5950     2.5210     2.0150 h1         1 BFK       0.044700
     45 H11          6.9280     3.2050     1.6910 h1         1 BFK       0.041950
     46 H12          7.0030     2.4110     0.1140 h1         1 BFK       0.041950
     47 H13          5.6170     3.3900    -1.8170 h1         1 BFK       0.041950
     48 H14          4.6350     4.8250    -1.5050 h1         1 BFK       0.041950
     49 H15          3.1110     3.5700    -0.0530 h1         1 BFK       0.044700
     50 H16          3.2820     2.7220    -1.6010 h1         1 BFK       0.044700
     51 H17          4.4850    -4.6150     2.4860 h1         1 BFK       0.101367
     52 H18          4.6400    -2.8290     2.6630 h1         1 BFK       0.101367
     53 H19          3.0090    -3.5950     2.6490 h1         1 BFK       0.101367
     54 H21          6.6300     6.0660    -0.6580 h1         1 BFK       0.033033
     55 H22          7.5880     5.3900     0.6760 h1         1 BFK       0.033033
     56 H23          7.6800     4.6570    -0.9440 h1         1 BFK       0.033033
     57 H24          1.1730    -2.5990     0.1970 ha         1 BFK       0.178000
     58 H25         -0.4920     0.6660     0.0980 hn         1 BFK       0.507000
     59 H26         -5.1510    -3.6410    -1.1040 hc         1 BFK       0.041367
     60 H27         -5.1230    -2.7730    -2.6530 hc         1 BFK       0.041367
     61 H28         -4.1680    -4.2450    -2.4430 hc         1 BFK       0.041367
     62 H29         -5.4850    -1.4260    -0.7270 hn         1 BFK       0.501000
     63 H30        -10.3530     1.9840     0.9980 ho         1 BFK       0.443000
     64 H31         -3.5960     1.7270    -0.8760 ha         1 BFK       0.145000
@<TRIPOS>BOND
     1     1     2 ar  
     2     1    29 ar  
     3     1    30 1   
     4     2    27 ar  
     5     2    35 1   
     6     3    26 1   
     7     3    27 ar  
     8     3    28 ar  
     9     4     5 ar  
    10     4    34 ar  
    11     4    36 1   
    12     5     6 ar  
    13     5    37 1   
    14     6     7 ar  
    15     6     8 1   
    16     7    32 ar  
    17     7    38 1   
    18     8    33 1   
    19     8    39 1   
    20     8    40 1   
    21     9    10 ar  
    22     9    25 ar  
    23     9    26 1   
    24    10    11 ar  
    25    10    41 1   
    26    11    12 ar  
    27    11    22 1   
    28    12    13 ar  
    29    12    42 1   
    30    13    19 1   
    31    13    25 ar  
    32    14    15 1   
    33    14    22 1   
    34    14    43 1   
    35    14    44 1   
    36    15    23 1   
    37    15    45 1   
    38    15    46 1   
    39    16    17 1   
    40    16    23 1   
    41    16    47 1   
    42    16    48 1   
    43    17    22 1   
    44    17    49 1   
    45    17    50 1   
    46    18    19 2   
    47    19    20 2   
    48    19    21 1   
    49    21    51 1   
    50    21    52 1   
    51    21    53 1   
    52    23    24 1   
    53    24    54 1   
    54    24    55 1   
    55    24    56 1   
    56    25    57 1   
    57    26    58 1   
    58    28    29 ar  
    59    29    31 1   
    60    30    59 1   
    61    30    60 1   
    62    30    61 1   
    63    31    32 1   
    64    31    62 1   
    65    32    34 ar  
    66    33    63 1   
    67    34    64 1   
@<TRIPOS>SUBSTRUCTURE
     1 BFK         1 TEMP              0 ****  ****    0 ROOT
