@<TRIPOS>MOLECULE
BFL
   30    31     1     0     0
SMALL
No Charge or Current Charge


@<TRIPOS>ATOM
      1 C1          -0.3090     1.0380    -0.3480 ca         1 BFL      -0.100000
      2 C2          -5.4050    -0.0890    -0.3140 ca         1 BFL      -0.133000
      3 C3          -4.7360     1.1390    -0.1860 ca         1 BFL      -0.116500
      4 C4          -3.3400     1.1660    -0.0180 ca         1 BFL      -0.111000
      5 C5           3.2610     0.0650     0.7520 c3         1 BFL      -0.178400
      6 C6           3.9820    -0.5080    -0.4880 c          1 BFL       0.726000
      7 C7           3.8220     1.4510     1.1570 c3         1 BFL      -0.054100
      8 C8           1.0860     1.0670    -0.1800 ca         1 BFL      -0.112000
      9 C9           1.7420     0.0560     0.5520 ca         1 BFL       0.028700
     10 C10          0.9730    -0.9870     1.1030 ca         1 BFL      -0.112000
     11 C11         -0.4220    -1.0160     0.9340 ca         1 BFL      -0.100000
     12 C12         -1.0950    -0.0030     0.2060 cp         1 BFL      -0.092000
     13 C13         -2.5830    -0.0330     0.0270 cp         1 BFL       0.009000
     14 C14         -3.2820    -1.2600    -0.1050 ca         1 BFL      -0.111000
     15 C15         -4.6770    -1.2880    -0.2740 ca         1 BFL      -0.116500
     16 O1           4.5980    -1.5560    -0.3600 o          1 BFL      -0.722000
     17 O2           3.8920     0.0910    -1.5510 o          1 BFL      -0.722000
     18 H1          -0.7810     1.8260    -0.9290 ha         1 BFL       0.092500
     19 H4          -2.8440     2.1260     0.0930 ha         1 BFL       0.114500
     20 H5           3.4900    -0.6060     1.5900 hc         1 BFL       0.036700
     21 H71          4.8880     1.3730     1.4010 hc         1 BFL       0.016700
     22 H72          3.7170     2.1830     0.3480 hc         1 BFL       0.016700
     23 H73          3.2980     1.8350     2.0400 hc         1 BFL       0.016700
     24 H8           1.6550     1.8740    -0.6320 ha         1 BFL       0.110000
     25 H10          1.4560    -1.7790     1.6690 ha         1 BFL       0.110000
     26 H11         -0.9870    -1.8270     1.3860 ha         1 BFL       0.092500
     27 H14         -2.7360    -2.2000    -0.0900 ha         1 BFL       0.114500
     28 H15         -5.1930    -2.2410    -0.3760 ha         1 BFL       0.099500
     29 H2          -6.4840    -0.1100    -0.4440 ha         1 BFL       0.098000
     30 H3          -5.2980     2.0690    -0.2140 ha         1 BFL       0.099500
@<TRIPOS>BOND
     1     1     8 ar  
     2     1    12 ar  
     3     1    18 1   
     4     2     3 ar  
     5     2    15 ar  
     6     2    29 1   
     7     3     4 ar  
     8     3    30 1   
     9     4    13 ar  
    10     4    19 1   
    11     5     6 1   
    12     5     7 1   
    13     5     9 1   
    14     5    20 1   
    15     6    16 1   
    16     6    17 1   
    17     7    21 1   
    18     7    22 1   
    19     7    23 1   
    20     8     9 ar  
    21     8    24 1   
    22     9    10 ar  
    23    10    11 ar  
    24    10    25 1   
    25    11    12 ar  
    26    11    26 1   
    27    12    13 1   
    28    13    14 ar  
    29    14    15 ar  
    30    14    27 1   
    31    15    28 1   
@<TRIPOS>SUBSTRUCTURE
     1 BFL         1 TEMP              0 ****  ****    0 ROOT
