@<TRIPOS>MOLECULE
BFL
   30    31     1     0     0
SMALL
abcg2


@<TRIPOS>ATOM
      1 C1          -0.2920     0.9810    -0.3880 ca         1 BFL      -0.100000
      2 C2          -5.3410    -0.0110    -0.3100 ca         1 BFL      -0.133000
      3 C3          -4.6510     1.1880    -0.1910 ca         1 BFL      -0.116500
      4 C4          -3.2730     1.1880    -0.0260 ca         1 BFL      -0.111000
      5 C5           3.2140    -0.0080     0.7120 c3         1 BFL      -0.178400
      6 C6           3.9820    -0.3890    -0.5850 c          1 BFL       0.726000
      7 C7           3.7250     1.3150     1.2860 c3         1 BFL      -0.054100
      8 C8           1.0830     0.9790    -0.2290 ca         1 BFL      -0.112000
      9 C9           1.7250    -0.0050     0.5240 ca         1 BFL       0.028700
     10 C10          0.9280    -0.9870     1.1040 ca         1 BFL      -0.112000
     11 C11         -0.4510    -0.9950     0.9430 ca         1 BFL      -0.100000
     12 C12         -1.0890    -0.0090     0.1930 cp         1 BFL      -0.092000
     13 C13         -2.5550    -0.0100     0.0190 cp         1 BFL       0.009000
     14 C14         -3.2630    -1.2080    -0.1030 ca         1 BFL      -0.111000
     15 C15         -4.6410    -1.2100    -0.2660 ca         1 BFL      -0.116500
     16 O1           5.2260    -0.3490    -0.5040 o          1 BFL      -0.722000
     17 O2           3.3120    -0.7140    -1.5810 o          1 BFL      -0.722000
     18 H1          -0.7500     1.7520    -0.9960 ha         1 BFL       0.092500
     19 H4          -2.7530     2.1310     0.0890 ha         1 BFL       0.114500
     20 H5           3.4480    -0.7890     1.4460 hc         1 BFL       0.036700
     21 H71          4.7850     1.2440     1.5270 hc         1 BFL       0.016700
     22 H72          3.6050     2.1380     0.5790 hc         1 BFL       0.016700
     23 H73          3.1900     1.5820     2.1980 hc         1 BFL       0.016700
     24 H8           1.6640     1.7590    -0.7070 ha         1 BFL       0.110000
     25 H10          1.3940    -1.7630     1.7000 ha         1 BFL       0.110000
     26 H11         -1.0330    -1.7700     1.4260 ha         1 BFL       0.092500
     27 H14         -2.7310    -2.1510    -0.0910 ha         1 BFL       0.114500
     28 H15         -5.1670    -2.1500    -0.3660 ha         1 BFL       0.099500
     29 H2          -6.4160    -0.0120    -0.4360 ha         1 BFL       0.098000
     30 H3          -5.1870     2.1270    -0.2180 ha         1 BFL       0.099500
@<TRIPOS>BOND
     1     1     8 ar  
     2     1    12 ar  
     3     1    18 1   
     4     2     3 ar  
     5     2    15 ar  
     6     2    29 1   
     7     3     4 ar  
     8     3    30 1   
     9     4    13 ar  
    10     4    19 1   
    11     5     6 1   
    12     5     7 1   
    13     5     9 1   
    14     5    20 1   
    15     6    16 1   
    16     6    17 1   
    17     7    21 1   
    18     7    22 1   
    19     7    23 1   
    20     8     9 ar  
    21     8    24 1   
    22     9    10 ar  
    23    10    11 ar  
    24    10    25 1   
    25    11    12 ar  
    26    11    26 1   
    27    12    13 1   
    28    13    14 ar  
    29    14    15 ar  
    30    14    27 1   
    31    15    28 1   
@<TRIPOS>SUBSTRUCTURE
     1 BFL         1 TEMP              0 ****  ****    0 ROOT
