@<TRIPOS>MOLECULE
BFM
   14    13     1     0     0
SMALL
abcg2


@<TRIPOS>ATOM
      1 O01          0.1700     0.0860     1.7830 oh         1 BFM      -0.664000
      2 C02          0.0470     0.1430     0.4100 c3         1 BFM      -0.118000
      3 C03          0.3970     1.6170    -0.0660 c          1 BFM       0.718000
      4 O04          0.6710     2.3530     0.8990 o          1 BFM      -0.656500
      5 O05          0.3020     1.8810    -1.2610 o          1 BFM      -0.656500
      6 C06          1.0080    -0.8880    -0.2000 c3         1 BFM       0.301000
      7 F07          0.6340    -2.1480     0.0760 f          1 BFM      -0.121000
      8 F08          1.1330    -0.8100    -1.5220 f          1 BFM      -0.121000
      9 F09          2.2270    -0.7210     0.3220 f          1 BFM      -0.121000
     10 C10         -1.4130    -0.1530     0.0370 c3         1 BFM       0.301000
     11 F11         -1.9130    -1.1770     0.7320 f          1 BFM      -0.121000
     12 F12         -2.1880     0.9050     0.3060 f          1 BFM      -0.121000
     13 F13         -1.5720    -0.4390    -1.2580 f          1 BFM      -0.121000
     14 H1           0.4110     1.0170     2.0000 ho         1 BFM       0.498000
@<TRIPOS>BOND
     1     1     2 1   
     2     1    14 1   
     3     2     3 1   
     4     2     6 1   
     5     2    10 1   
     6     3     4 1   
     7     3     5 1   
     8     6     7 1   
     9     6     8 1   
    10     6     9 1   
    11    10    11 1   
    12    10    12 1   
    13    10    13 1   
@<TRIPOS>SUBSTRUCTURE
     1 BFM         1 TEMP              0 ****  ****    0 ROOT
