@<TRIPOS>MOLECULE
BFM
   14    13     1     0     0
SMALL
No Charge or Current Charge


@<TRIPOS>ATOM
      1 O01          0.0930     0.1120     1.8890 oh         1 BFM      -0.664000
      2 C02          0.0130     0.1460     0.4170 c3         1 BFM      -0.118000
      3 C03          0.4300     1.5700    -0.0810 c          1 BFM       0.718000
      4 O04          0.8120     2.3570     0.7780 o          1 BFM      -0.656500
      5 O05          0.3280     1.8660    -1.2630 o          1 BFM      -0.656500
      6 C06          1.0310    -0.8960    -0.1670 c3         1 BFM       0.301000
      7 F07          0.7770    -2.1480     0.2840 f          1 BFM      -0.121000
      8 F08          1.0120    -0.9460    -1.5200 f          1 BFM      -0.121000
      9 F09          2.2980    -0.5880     0.2020 f          1 BFM      -0.121000
     10 C10         -1.4720    -0.1370    -0.0120 c3         1 BFM       0.301000
     11 F11         -1.9240    -1.3050     0.5040 f          1 BFM      -0.121000
     12 F12         -2.2950     0.8410     0.4370 f          1 BFM      -0.121000
     13 F13         -1.6310    -0.2090    -1.3550 f          1 BFM      -0.121000
     14 H1           0.4420     1.0030     2.1470 ho         1 BFM       0.498000
@<TRIPOS>BOND
     1     1     2 1   
     2     1    14 1   
     3     2     3 1   
     4     2     6 1   
     5     2    10 1   
     6     3     4 1   
     7     3     5 1   
     8     6     7 1   
     9     6     8 1   
    10     6     9 1   
    11    10    11 1   
    12    10    12 1   
    13    10    13 1   
@<TRIPOS>SUBSTRUCTURE
     1 BFM         1 TEMP              0 ****  ****    0 ROOT
