@<TRIPOS>MOLECULE
BFN
   52    53     1     0     0
SMALL
bcc


@<TRIPOS>ATOM
      1 O2           2.4260    -2.3420    -1.4260 oh         1 BFN      -0.633800
      2 C1           2.3300    -3.3060     0.8260 c          1 BFN       0.938600
      3 F1           4.1160    -1.2800     1.4920 f          1 BFN      -0.229300
      4 C2           2.5200    -2.0380    -0.0660 c6         1 BFN       0.168600
      5 C3           3.9230    -1.4660     0.1240 c6         1 BFN       0.147600
      6 C4           4.0840    -0.1280    -0.5780 c6         1 BFN       0.100100
      7 O4           5.3290     0.4630    -0.3120 oh         1 BFN      -0.584800
      8 C5           2.9870     0.8360    -0.1310 c6         1 BFN       0.081700
      9 N5           3.0410     2.0550    -0.8960 ns         1 BFN      -0.564900
     10 C6           1.6130     0.1730    -0.3060 c6         1 BFN       0.103100
     11 O6           1.5660    -1.0910     0.3190 os         1 BFN      -0.400600
     12 C7           0.4950     0.9810     0.3530 c3         1 BFN       0.142100
     13 O7           0.6200     0.9540     1.7530 oh         1 BFN      -0.595800
     14 C8          -0.8940     0.5000    -0.1000 c3         1 BFN       0.086100
     15 O8          -1.0480     0.6450    -1.4970 oh         1 BFN      -0.601800
     16 C9          -2.0040     1.2280     0.6510 c3         1 BFN       0.070000
     17 N9          -3.2950     0.7950     0.1720 ns         1 BFN      -0.561900
     18 C10          3.3950     3.2560    -0.4020 c          1 BFN       0.671100
     19 O10          3.6460     3.4530     0.7780 o          1 BFN      -0.592100
     20 C11          3.4600     4.3670    -1.4210 c3         1 BFN      -0.182100
     21 C12         -4.3690     0.6250     0.9580 c          1 BFN       0.678700
     22 O12         -4.3620     0.8430     2.1630 o          1 BFN      -0.605100
     23 C13         -5.6110     0.1470     0.2700 ca         1 BFN      -0.143600
     24 C14         -6.8410     0.4510     0.8500 ca         1 BFN      -0.090000
     25 C15         -8.0200     0.0280     0.2560 ca         1 BFN      -0.142500
     26 C16         -7.9810    -0.7190    -0.9150 ca         1 BFN      -0.117000
     27 C17         -6.7580    -1.0420    -1.4880 ca         1 BFN      -0.142500
     28 C18         -5.5790    -0.6100    -0.8990 ca         1 BFN      -0.090000
     29 O1A          3.1360    -4.2190     0.5700 o          1 BFN      -0.788800
     30 O1B          1.4230    -3.2950     1.6670 o          1 BFN      -0.788800
     31 HO2          1.6540    -2.8970    -1.5830 ho         1 BFN       0.418000
     32 H3           4.6700    -2.1840    -0.2220 h1         1 BFN       0.079700
     33 H4           3.9600    -0.3110    -1.6540 h1         1 BFN       0.035700
     34 HO4          5.9940     0.0350    -0.8600 ho         1 BFN       0.395000
     35 H5           3.1380     1.0940     0.9180 h1         1 BFN       0.125700
     36 HN5          2.8900     1.9800    -1.8910 hn         1 BFN       0.296500
     37 H6           1.4080     0.0880    -1.3820 h1         1 BFN       0.040700
     38 H7           0.6010     2.0300     0.0500 h1         1 BFN       0.053700
     39 HO7          0.7240     0.0300     2.0150 ho         1 BFN       0.448000
     40 H8          -0.9910    -0.5730     0.0970 h1         1 BFN       0.115700
     41 HO8         -0.9450     1.5770    -1.7250 ho         1 BFN       0.387000
     42 H9          -1.9370     1.0200     1.7160 h1         1 BFN       0.064700
     43 H9A         -1.8930     2.3130     0.5260 h1         1 BFN       0.064700
     44 HN9         -3.4070     0.7380    -0.8280 hn         1 BFN       0.317500
     45 H11          3.0910     4.0800    -2.4030 hc         1 BFN       0.050700
     46 H11A         2.8830     5.2210    -1.0680 hc         1 BFN       0.050700
     47 H11B         4.4940     4.6970    -1.5270 hc         1 BFN       0.050700
     48 H14         -6.8760     1.0280     1.7640 ha         1 BFN       0.146000
     49 H15         -8.9700     0.2770     0.7090 ha         1 BFN       0.129000
     50 H16         -8.9020    -1.0490    -1.3780 ha         1 BFN       0.125000
     51 H17         -6.7210    -1.6370    -2.3900 ha         1 BFN       0.129000
     52 H18         -4.6360    -0.8940    -1.3510 ha         1 BFN       0.146000
@<TRIPOS>BOND
     1     1     4 1   
     2     1    31 1   
     3     2     4 1   
     4     2    29 1   
     5     2    30 1   
     6     3     5 1   
     7     4     5 1   
     8     4    11 1   
     9     5     6 1   
    10     5    32 1   
    11     6     7 1   
    12     6     8 1   
    13     6    33 1   
    14     7    34 1   
    15     8     9 1   
    16     8    10 1   
    17     8    35 1   
    18     9    18 1   
    19     9    36 1   
    20    10    11 1   
    21    10    12 1   
    22    10    37 1   
    23    12    13 1   
    24    12    14 1   
    25    12    38 1   
    26    13    39 1   
    27    14    15 1   
    28    14    16 1   
    29    14    40 1   
    30    15    41 1   
    31    16    17 1   
    32    16    42 1   
    33    16    43 1   
    34    17    21 1   
    35    17    44 1   
    36    18    19 2   
    37    18    20 1   
    38    20    45 1   
    39    20    46 1   
    40    20    47 1   
    41    21    22 2   
    42    21    23 1   
    43    23    24 ar  
    44    23    28 ar  
    45    24    25 ar  
    46    24    48 1   
    47    25    26 ar  
    48    25    49 1   
    49    26    27 ar  
    50    26    50 1   
    51    27    28 ar  
    52    27    51 1   
    53    28    52 1   
@<TRIPOS>SUBSTRUCTURE
     1 BFN         1 TEMP              0 ****  ****    0 ROOT
