@<TRIPOS>MOLECULE
BFN
   52    53     1     0     0
SMALL
No Charge or Current Charge


@<TRIPOS>ATOM
      1 O2           2.5060    -2.5500    -1.2200 oh         1 BFN      -0.696000
      2 C1           3.0420    -3.4580     1.0410 c          1 BFN       0.728000
      3 F1           4.7210    -1.1810     1.4050 f          1 BFN      -0.248000
      4 C2           2.9130    -2.1550     0.1140 c6         1 BFN       0.215000
      5 C3           4.3030    -1.4450     0.0770 c6         1 BFN       0.166300
      6 C4           4.2370    -0.0950    -0.7050 c6         1 BFN       0.123300
      7 O4           5.5040     0.5990    -0.6760 oh         1 BFN      -0.647000
      8 C5           3.0970     0.8150    -0.1490 c6         1 BFN       0.081700
      9 N5           3.0020     2.0620    -0.9460 ns         1 BFN      -0.497900
     10 C6           1.7510     0.0180    -0.1510 c6         1 BFN       0.126300
     11 O6           1.9020    -1.2230     0.5990 os         1 BFN      -0.447000
     12 C7           0.5660     0.7820     0.5370 c3         1 BFN       0.165300
     13 O7           0.6910     0.6300     1.9620 oh         1 BFN      -0.718000
     14 C8          -0.8430     0.2810     0.0840 c3         1 BFN       0.109300
     15 O8          -1.0250     0.4820    -1.3370 oh         1 BFN      -0.664000
     16 C9          -2.0070     0.9690     0.8480 c3         1 BFN       0.070000
     17 N9          -3.3220     0.6320     0.2860 ns         1 BFN      -0.494900
     18 C10          2.8370     3.3320    -0.4450 c          1 BFN       0.604100
     19 O10          2.7350     3.5620     0.7510 o          1 BFN      -0.592100
     20 C11          2.7900     4.4310    -1.4990 c3         1 BFN      -0.182100
     21 C12         -4.5280     0.8770     0.9050 c          1 BFN       0.611700
     22 O12         -4.5740     1.4160     2.0040 o          1 BFN      -0.605100
     23 C13         -5.7770     0.4500     0.1590 ca         1 BFN      -0.143600
     24 C14         -7.0460     0.6770     0.7430 ca         1 BFN      -0.072000
     25 C15         -8.2230     0.2940     0.0780 ca         1 BFN      -0.124500
     26 C16         -8.1540    -0.3230    -1.1800 ca         1 BFN      -0.099000
     27 C17         -6.9040    -0.5560    -1.7730 ca         1 BFN      -0.124500
     28 C18         -5.7220    -0.1740    -1.1130 ca         1 BFN      -0.072000
     29 O1A          3.0390    -4.5210     0.4240 o          1 BFN      -0.683500
     30 O1B          2.5380    -3.4130     2.1590 o          1 BFN      -0.683500
     31 HO2          2.4950    -3.5360    -1.1670 ho         1 BFN       0.457000
     32 H3           5.0490    -2.1120    -0.3760 h1         1 BFN       0.079700
     33 H4           3.9880    -0.3310    -1.7500 h1         1 BFN       0.035700
     34 HO4          6.1440     0.0590    -1.1900 ho         1 BFN       0.434000
     35 H5           3.3430     1.0760     0.8920 h1         1 BFN       0.125700
     36 HN5          3.1050     1.9910    -1.9510 hn         1 BFN       0.296500
     37 H6           1.4750    -0.2100    -1.1900 h1         1 BFN       0.040700
     38 H7           0.6300     1.8450     0.2710 h1         1 BFN       0.053700
     39 HO7          1.1610    -0.2380     2.0560 ho         1 BFN       0.547000
     40 H8          -0.8950    -0.7950     0.3080 h1         1 BFN       0.115700
     41 HO8         -1.1120     1.4480    -1.4920 ho         1 BFN       0.426000
     42 H9          -1.9810     0.6600     1.9020 h1         1 BFN       0.064700
     43 H9A         -1.8780     2.0590     0.8150 h1         1 BFN       0.064700
     44 HN9         -3.3480     0.1910    -0.6230 hn         1 BFN       0.317500
     45 H11          2.0030     4.1960    -2.2250 hc         1 BFN       0.050700
     46 H11A         2.6560     5.4280    -1.0650 hc         1 BFN       0.050700
     47 H11B         3.6960     4.3760    -2.1130 hc         1 BFN       0.050700
     48 H14         -7.1240     1.1540     1.7180 ha         1 BFN       0.128000
     49 H15         -9.1910     0.4750     0.5410 ha         1 BFN       0.111000
     50 H16         -9.0660    -0.6200    -1.6930 ha         1 BFN       0.107000
     51 H17         -6.8490    -1.0340    -2.7480 ha         1 BFN       0.111000
     52 H18         -4.7740    -0.3720    -1.6060 ha         1 BFN       0.128000
@<TRIPOS>BOND
     1     1     4 1   
     2     1    31 1   
     3     2     4 1   
     4     2    29 1   
     5     2    30 1   
     6     3     5 1   
     7     4     5 1   
     8     4    11 1   
     9     5     6 1   
    10     5    32 1   
    11     6     7 1   
    12     6     8 1   
    13     6    33 1   
    14     7    34 1   
    15     8     9 1   
    16     8    10 1   
    17     8    35 1   
    18     9    18 1   
    19     9    36 1   
    20    10    11 1   
    21    10    12 1   
    22    10    37 1   
    23    12    13 1   
    24    12    14 1   
    25    12    38 1   
    26    13    39 1   
    27    14    15 1   
    28    14    16 1   
    29    14    40 1   
    30    15    41 1   
    31    16    17 1   
    32    16    42 1   
    33    16    43 1   
    34    17    21 1   
    35    17    44 1   
    36    18    19 2   
    37    18    20 1   
    38    20    45 1   
    39    20    46 1   
    40    20    47 1   
    41    21    22 2   
    42    21    23 1   
    43    23    24 ar  
    44    23    28 ar  
    45    24    25 ar  
    46    24    48 1   
    47    25    26 ar  
    48    25    49 1   
    49    26    27 ar  
    50    26    50 1   
    51    27    28 ar  
    52    27    51 1   
    53    28    52 1   
@<TRIPOS>SUBSTRUCTURE
     1 BFN         1 TEMP              0 ****  ****    0 ROOT
