@<TRIPOS>MOLECULE
BFO
   89    91     1     0     0
SMALL
No Charge or Current Charge


@<TRIPOS>ATOM
      1 C1           6.9120     2.5820     0.5620 ca         1 BFO      -0.102000
      2 C2           6.3530     1.9410    -0.5570 ca         1 BFO      -0.086000
      3 C3           5.1670     2.4320    -1.1390 ca         1 BFO      -0.097300
      4 C4           4.5480     1.7280    -2.3390 c3         1 BFO       0.230900
      5 O5           3.6380     0.7350    -1.8430 os         1 BFO      -0.453100
      6 C6           2.8940     0.0500    -2.7500 c          1 BFO       0.641100
      7 O7           2.9000     0.2170    -3.9590 o          1 BFO      -0.553000
      8 N8           2.0810    -0.8130    -2.0760 ns         1 BFO      -0.493900
      9 C9           1.0600    -1.6890    -2.6850 c3         1 BFO       0.051700
     10 C10          1.7200    -2.8750    -3.4280 c3         1 BFO      -0.113100
     11 C11          0.0630    -2.1750    -1.5940 c          1 BFO       0.595100
     12 O12          0.2830    -2.0630    -0.3940 o          1 BFO      -0.592100
     13 N13         -1.1030    -2.7420    -2.0690 ns         1 BFO      -0.490900
     14 C14         -2.2060    -3.2500    -1.2210 c3         1 BFO       0.054700
     15 C15         -2.7970    -4.5560    -1.8180 c          1 BFO       0.575100
     16 O16         -2.6010    -4.9400    -2.9650 o          1 BFO      -0.482000
     17 O17         -3.5140    -5.2570    -0.8840 os         1 BFO      -0.441100
     18 C18         -4.1060    -6.5040    -1.2830 c3         1 BFO       0.213900
     19 C19         -4.8550    -7.0790    -0.0880 ca         1 BFO      -0.103300
     20 C20         -6.1840    -6.6880     0.1710 ca         1 BFO      -0.085000
     21 C21         -6.8760    -7.2180     1.2740 ca         1 BFO      -0.114000
     22 C22         -6.2440    -8.1400     2.1250 ca         1 BFO      -0.096000
     23 C23         -4.9180    -8.5310     1.8740 ca         1 BFO      -0.114000
     24 C24         -4.2240    -8.0020     0.7710 ca         1 BFO      -0.085000
     25 C25         -3.3090    -2.1820    -0.9880 c3         1 BFO      -0.080400
     26 C26         -2.8300    -0.9100    -0.2470 c3         1 BFO      -0.096400
     27 C27         -3.9810     0.0560     0.0900 c3         1 BFO       0.102000
     28 N28         -3.4990     1.2320     0.8220 ns         1 BFO      -0.486900
     29 C29         -3.6190     2.5390     0.3910 c          1 BFO       0.564100
     30 O30         -4.1880     2.8320    -0.6540 o          1 BFO      -0.605100
     31 C31         -3.0670     3.6290     1.3730 c3         1 BFO       0.103300
     32 O32         -3.9570     4.7670     1.4710 oh         1 BFO      -0.654000
     33 C33         -1.6400     4.1200     0.9750 c3         1 BFO      -0.198700
     34 C34         -0.9480     5.0400     2.0470 c3         1 BFO      -0.046700
     35 C35         -0.7880     4.3190     3.4140 c3         1 BFO      -0.088100
     36 C36          0.4210     5.6000     1.5420 c3         1 BFO      -0.079400
     37 C37          1.1030     6.6120     2.4900 c3         1 BFO      -0.088100
     38 C38         -1.7080     4.8030    -0.4040 c          1 BFO       0.576900
     39 O39         -1.1400     4.3640    -1.3980 o          1 BFO      -0.512100
     40 C40          4.5440     3.5710    -0.5920 ca         1 BFO      -0.073000
     41 C41          5.1000     4.2160     0.5280 ca         1 BFO      -0.041000
     42 C42          4.4740     5.3530     1.0740 ca         1 BFO      -0.095000
     43 C43          5.0300     5.9930     2.1960 ca         1 BFO      -0.108000
     44 C44          6.2120     5.4990     2.7740 ca         1 BFO      -0.103000
     45 C45          6.8420     4.3640     2.2320 ca         1 BFO      -0.100000
     46 C46          6.2890     3.7200     1.1090 ca         1 BFO      -0.028000
     47 H1           7.8260     2.1910     1.0040 ha         1 BFO       0.115000
     48 H2           6.8380     1.0570    -0.9670 ha         1 BFO       0.118000
     49 H4           4.0220     2.4650    -2.9610 h1         1 BFO       0.056700
     50 H4A          5.3340     1.2680    -2.9510 h1         1 BFO       0.056700
     51 HN8          2.1750    -0.8080    -1.0670 hn         1 BFO       0.349500
     52 H9           0.4810    -1.0970    -3.4060 h1         1 BFO       0.084700
     53 H10          2.3050    -3.4900    -2.7330 hc         1 BFO       0.055033
     54 H10A         0.9630    -3.5140    -3.8970 hc         1 BFO       0.055033
     55 H10B         2.3920    -2.5170    -4.2170 hc         1 BFO       0.055033
     56 HN13        -1.1980    -2.8200    -3.0760 hn         1 BFO       0.322500
     57 H14         -1.7970    -3.5380    -0.2430 h1         1 BFO       0.106700
     58 H18         -4.8060    -6.3540    -2.1160 h1         1 BFO       0.057700
     59 H18A        -3.3350    -7.2140    -1.6130 h1         1 BFO       0.057700
     60 H20         -6.6800    -5.9720    -0.4820 ha         1 BFO       0.115000
     61 H21         -7.9030    -6.9130     1.4680 ha         1 BFO       0.116000
     62 H22         -6.7810    -8.5500     2.9790 ha         1 BFO       0.114000
     63 H23         -4.4270    -9.2430     2.5330 ha         1 BFO       0.116000
     64 H24         -3.1970    -8.3080     0.5850 ha         1 BFO       0.115000
     65 H25         -3.7430    -1.8970    -1.9550 hc         1 BFO       0.063700
     66 H25A        -4.1200    -2.6390    -0.4060 hc         1 BFO       0.063700
     67 H26         -2.3260    -1.2030     0.6820 hc         1 BFO       0.051700
     68 H26A        -2.0930    -0.3800    -0.8630 hc         1 BFO       0.051700
     69 H27         -4.4800     0.3640    -0.8380 h1         1 BFO       0.060200
     70 H27A        -4.7230    -0.4610     0.7140 h1         1 BFO       0.060200
     71 HN28        -3.0370     1.0830     1.7120 hn         1 BFO       0.317500
     72 H31         -3.0100     3.1320     2.3490 h1         1 BFO       0.069700
     73 HO32        -4.7170     4.5950     0.8670 ho         1 BFO       0.479000
     74 H33         -1.0090     3.2300     0.8520 hc         1 BFO       0.067700
     75 H34         -1.6020     5.9060     2.2140 hc         1 BFO       0.066700
     76 H35         -0.3180     4.9710     4.1580 hc         1 BFO       0.036700
     77 H35A        -1.7580     4.0300     3.8340 hc         1 BFO       0.036700
     78 H35B        -0.1720     3.4170     3.3110 hc         1 BFO       0.036700
     79 H36          1.1100     4.7680     1.3510 hc         1 BFO       0.037700
     80 H36A         0.2790     6.1130     0.5840 hc         1 BFO       0.037700
     81 H37          0.3930     7.3830     2.8140 hc         1 BFO       0.034700
     82 H37A         1.5120     6.1140     3.3760 hc         1 BFO       0.034700
     83 H37B         1.9330     7.1120     1.9760 hc         1 BFO       0.034700
     84 H38         -2.2990     5.7450    -0.4520 h4         1 BFO       0.001200
     85 H40          3.6250     3.9490    -1.0340 ha         1 BFO       0.114000
     86 H42          3.5610     5.7410     0.6290 ha         1 BFO       0.113000
     87 H43          4.5440     6.8710     2.6160 ha         1 BFO       0.114000
     88 H44          6.6410     5.9950     3.6420 ha         1 BFO       0.114000
     89 H45          7.7570     3.9880     2.6850 ha         1 BFO       0.114000
@<TRIPOS>BOND
     1     1     2 ar  
     2     1    46 ar  
     3     1    47 1   
     4     2     3 ar  
     5     2    48 1   
     6     3     4 1   
     7     3    40 ar  
     8     4     5 1   
     9     4    49 1   
    10     4    50 1   
    11     5     6 1   
    12     6     7 2   
    13     6     8 1   
    14     8     9 1   
    15     8    51 1   
    16     9    10 1   
    17     9    11 1   
    18     9    52 1   
    19    10    53 1   
    20    10    54 1   
    21    10    55 1   
    22    11    12 2   
    23    11    13 1   
    24    13    14 1   
    25    13    56 1   
    26    14    15 1   
    27    14    25 1   
    28    14    57 1   
    29    15    16 2   
    30    15    17 1   
    31    17    18 1   
    32    18    19 1   
    33    18    58 1   
    34    18    59 1   
    35    19    20 ar  
    36    19    24 ar  
    37    20    21 ar  
    38    20    60 1   
    39    21    22 ar  
    40    21    61 1   
    41    22    23 ar  
    42    22    62 1   
    43    23    24 ar  
    44    23    63 1   
    45    24    64 1   
    46    25    26 1   
    47    25    65 1   
    48    25    66 1   
    49    26    27 1   
    50    26    67 1   
    51    26    68 1   
    52    27    28 1   
    53    27    69 1   
    54    27    70 1   
    55    28    29 1   
    56    28    71 1   
    57    29    30 2   
    58    29    31 1   
    59    31    32 1   
    60    31    33 1   
    61    31    72 1   
    62    32    73 1   
    63    33    34 1   
    64    33    38 1   
    65    33    74 1   
    66    34    35 1   
    67    34    36 1   
    68    34    75 1   
    69    35    76 1   
    70    35    77 1   
    71    35    78 1   
    72    36    37 1   
    73    36    79 1   
    74    36    80 1   
    75    37    81 1   
    76    37    82 1   
    77    37    83 1   
    78    38    39 2   
    79    38    84 1   
    80    40    41 ar  
    81    40    85 1   
    82    41    42 ar  
    83    41    46 ar  
    84    42    43 ar  
    85    42    86 1   
    86    43    44 ar  
    87    43    87 1   
    88    44    45 ar  
    89    44    88 1   
    90    45    46 ar  
    91    45    89 1   
@<TRIPOS>SUBSTRUCTURE
     1 BFO         1 TEMP              0 ****  ****    0 ROOT
