@<TRIPOS>MOLECULE
BFO
   89    91     1     0     0
SMALL
bcc


@<TRIPOS>ATOM
      1 C1           8.7480     0.1560    -0.3750 ca         1 BFO      -0.120000
      2 C2           7.5590     0.3660    -1.0140 ca         1 BFO      -0.104000
      3 C3           6.6340     1.3220    -0.5270 ca         1 BFO      -0.097300
      4 C4           5.3470     1.5480    -1.2590 c3         1 BFO       0.207700
      5 O5           4.5530     0.3690    -1.0970 os         1 BFO      -0.429900
      6 C6           3.4090     0.3150    -1.7900 c          1 BFO       0.757100
      7 O7           3.0330     1.1880    -2.5460 o          1 BFO      -0.602000
      8 N8           2.7430    -0.8220    -1.5240 ns         1 BFO      -0.560900
      9 C9           1.5040    -1.1620    -2.1750 c3         1 BFO       0.051700
     10 C10          1.7130    -2.0720    -3.3870 c3         1 BFO      -0.113100
     11 C11          0.5980    -1.8640    -1.1710 c          1 BFO       0.662100
     12 O12          1.0420    -2.5760    -0.2850 o          1 BFO      -0.592100
     13 N13         -0.7140    -1.6590    -1.3670 ns         1 BFO      -0.557900
     14 C14         -1.7250    -2.3930    -0.6570 c3         1 BFO       0.054700
     15 C15         -1.8330    -3.8080    -1.2140 c          1 BFO       0.624100
     16 O16         -1.2870    -4.1920    -2.2140 o          1 BFO      -0.531000
     17 O17         -2.6190    -4.5530    -0.4550 os         1 BFO      -0.417900
     18 C18         -2.8630    -5.9110    -0.8680 c3         1 BFO       0.190700
     19 C19         -3.8330    -6.4970     0.1110 ca         1 BFO      -0.103300
     20 C20         -5.2040    -6.3680    -0.0920 ca         1 BFO      -0.103000
     21 C21         -6.1040    -6.8860     0.8280 ca         1 BFO      -0.132000
     22 C22         -5.6390    -7.5380     1.9630 ca         1 BFO      -0.114000
     23 C23         -4.2730    -7.6710     2.1730 ca         1 BFO      -0.132000
     24 C24         -3.3750    -7.1520     1.2500 ca         1 BFO      -0.103000
     25 C25         -3.0670    -1.6600    -0.7380 c3         1 BFO      -0.080400
     26 C26         -3.0140    -0.2950    -0.0630 c3         1 BFO      -0.096400
     27 C27         -4.3600     0.4080    -0.1320 c3         1 BFO       0.102000
     28 N28         -4.2770     1.7060     0.5090 ns         1 BFO      -0.553900
     29 C29         -5.3370     2.4000     0.9160 c          1 BFO       0.631100
     30 O30         -6.4940     2.0060     0.8270 o          1 BFO      -0.605100
     31 C31         -5.0520     3.7620     1.5560 c3         1 BFO       0.080100
     32 O32         -6.2250     4.2510     2.1370 oh         1 BFO      -0.591800
     33 C33         -4.4980     4.7660     0.5230 c3         1 BFO      -0.198700
     34 C34         -4.0870     6.1200     1.1230 c3         1 BFO      -0.046700
     35 C35         -3.1340     5.9680     2.3030 c3         1 BFO      -0.088100
     36 C36         -3.4640     6.9760     0.0120 c3         1 BFO      -0.079400
     37 C37         -3.1590     8.4140     0.4110 c3         1 BFO      -0.088100
     38 C38         -5.5620     4.9660    -0.5330 c          1 BFO       0.576900
     39 O39         -5.7370     4.2210    -1.4640 o          1 BFO      -0.512100
     40 C40          6.9360     2.0350     0.6010 ca         1 BFO      -0.091000
     41 C41          8.1610     1.8450     1.2840 ca         1 BFO      -0.041000
     42 C42          8.4900     2.5810     2.4460 ca         1 BFO      -0.113000
     43 C43          9.6850     2.3790     3.0830 ca         1 BFO      -0.126000
     44 C44         10.6060     1.4330     2.5870 ca         1 BFO      -0.121000
     45 C45         10.3120     0.7040     1.4660 ca         1 BFO      -0.118000
     46 C46          9.0850     0.8900     0.7890 ca         1 BFO      -0.028000
     47 H1           9.4510    -0.5720    -0.7600 ha         1 BFO       0.133000
     48 H2           7.3240    -0.1960    -1.9090 ha         1 BFO       0.136000
     49 H4           4.8230     2.4160    -0.8540 h1         1 BFO       0.056700
     50 H4A          5.5380     1.7310    -2.3180 h1         1 BFO       0.056700
     51 HN8          3.1630    -1.5110    -0.9180 hn         1 BFO       0.349500
     52 H9           1.0300    -0.2350    -2.5010 h1         1 BFO       0.084700
     53 H10          2.2170    -2.9940    -3.0960 hc         1 BFO       0.055033
     54 H10A         0.7620    -2.3360    -3.8490 hc         1 BFO       0.055033
     55 H10B         2.3250    -1.5640    -4.1320 hc         1 BFO       0.055033
     56 HN13        -1.0050    -1.1290    -2.1740 hn         1 BFO       0.322500
     57 H14         -1.4370    -2.4700     0.3950 h1         1 BFO       0.106700
     58 H18         -3.2700    -5.9190    -1.8800 h1         1 BFO       0.057700
     59 H18A        -1.9230    -6.4660    -0.8720 h1         1 BFO       0.057700
     60 H20         -5.5710    -5.8650    -0.9790 ha         1 BFO       0.133000
     61 H21         -7.1680    -6.7840     0.6570 ha         1 BFO       0.134000
     62 H22         -6.3400    -7.9450     2.6810 ha         1 BFO       0.132000
     63 H23         -3.9050    -8.1810     3.0540 ha         1 BFO       0.134000
     64 H24         -2.3100    -7.2610     1.4170 ha         1 BFO       0.133000
     65 H25         -3.3600    -1.5520    -1.7880 hc         1 BFO       0.063700
     66 H25A        -3.8320    -2.2720    -0.2580 hc         1 BFO       0.063700
     67 H26         -2.7200    -0.4170     0.9830 hc         1 BFO       0.051700
     68 H26A        -2.2530     0.3320    -0.5370 hc         1 BFO       0.051700
     69 H27         -4.6710     0.5200    -1.1750 h1         1 BFO       0.060200
     70 H27A        -5.1230    -0.1880     0.3710 h1         1 BFO       0.060200
     71 HN28        -3.3620     2.1150     0.6200 hn         1 BFO       0.317500
     72 H31         -4.2880     3.6080     2.3270 h1         1 BFO       0.069700
     73 HO32        -6.9340     3.6420     1.8760 ho         1 BFO       0.440000
     74 H33         -3.6210     4.3180     0.0410 hc         1 BFO       0.067700
     75 H34         -4.9930     6.6280     1.4750 hc         1 BFO       0.066700
     76 H35         -2.8230     6.9410     2.6810 hc         1 BFO       0.036700
     77 H35A        -3.5880     5.4410     3.1410 hc         1 BFO       0.036700
     78 H35B        -2.2320     5.4240     2.0100 hc         1 BFO       0.036700
     79 H36         -2.5500     6.4850    -0.3380 hc         1 BFO       0.037700
     80 H36A        -4.1370     7.0030    -0.8520 hc         1 BFO       0.037700
     81 H37         -4.0480     8.9100     0.8060 hc         1 BFO       0.034700
     82 H37A        -2.3780     8.4790     1.1680 hc         1 BFO       0.034700
     83 H37B        -2.8190     8.9870    -0.4520 hc         1 BFO       0.034700
     84 H38         -6.2150     5.8450    -0.3860 h4         1 BFO       0.001200
     85 H40          6.2340     2.7660     0.9870 ha         1 BFO       0.132000
     86 H42          7.7830     3.3070     2.8270 ha         1 BFO       0.131000
     87 H43          9.9290     2.9470     3.9710 ha         1 BFO       0.132000
     88 H44         11.5490     1.2870     3.0970 ha         1 BFO       0.132000
     89 H45         11.0190    -0.0220     1.0820 ha         1 BFO       0.132000
@<TRIPOS>BOND
     1     1     2 ar  
     2     1    46 ar  
     3     1    47 1   
     4     2     3 ar  
     5     2    48 1   
     6     3     4 1   
     7     3    40 ar  
     8     4     5 1   
     9     4    49 1   
    10     4    50 1   
    11     5     6 1   
    12     6     7 2   
    13     6     8 1   
    14     8     9 1   
    15     8    51 1   
    16     9    10 1   
    17     9    11 1   
    18     9    52 1   
    19    10    53 1   
    20    10    54 1   
    21    10    55 1   
    22    11    12 2   
    23    11    13 1   
    24    13    14 1   
    25    13    56 1   
    26    14    15 1   
    27    14    25 1   
    28    14    57 1   
    29    15    16 2   
    30    15    17 1   
    31    17    18 1   
    32    18    19 1   
    33    18    58 1   
    34    18    59 1   
    35    19    20 ar  
    36    19    24 ar  
    37    20    21 ar  
    38    20    60 1   
    39    21    22 ar  
    40    21    61 1   
    41    22    23 ar  
    42    22    62 1   
    43    23    24 ar  
    44    23    63 1   
    45    24    64 1   
    46    25    26 1   
    47    25    65 1   
    48    25    66 1   
    49    26    27 1   
    50    26    67 1   
    51    26    68 1   
    52    27    28 1   
    53    27    69 1   
    54    27    70 1   
    55    28    29 1   
    56    28    71 1   
    57    29    30 2   
    58    29    31 1   
    59    31    32 1   
    60    31    33 1   
    61    31    72 1   
    62    32    73 1   
    63    33    34 1   
    64    33    38 1   
    65    33    74 1   
    66    34    35 1   
    67    34    36 1   
    68    34    75 1   
    69    35    76 1   
    70    35    77 1   
    71    35    78 1   
    72    36    37 1   
    73    36    79 1   
    74    36    80 1   
    75    37    81 1   
    76    37    82 1   
    77    37    83 1   
    78    38    39 2   
    79    38    84 1   
    80    40    41 ar  
    81    40    85 1   
    82    41    42 ar  
    83    41    46 ar  
    84    42    43 ar  
    85    42    86 1   
    86    43    44 ar  
    87    43    87 1   
    88    44    45 ar  
    89    44    88 1   
    90    45    46 ar  
    91    45    89 1   
@<TRIPOS>SUBSTRUCTURE
     1 BFO         1 TEMP              0 ****  ****    0 ROOT
