@<TRIPOS>MOLECULE
BFQ
   38    37     1     0     0
SMALL
bcc


@<TRIPOS>ATOM
      1 P1          -2.8400     1.3740    -0.3230 p5         1 BFQ       0.847700
      2 O2          -1.7680     2.1870    -1.0610 o          1 BFQ      -0.375333
      3 O3          -3.4330     2.1560     0.8980 o          1 BFQ      -0.375333
      4 O5          -3.9420     0.8500    -1.2470 o          1 BFQ      -0.375333
      5 C7          -2.0470    -0.0480     0.6210 c3         1 BFQ       0.229400
      6 P8          -2.0260    -1.7130    -0.2240 p5         1 BFQ       0.847700
      7 O9          -3.4700    -2.2280    -0.2740 o          1 BFQ      -0.375333
      8 O10         -1.4100    -1.4900    -1.6180 o          1 BFQ      -0.375333
      9 O12         -1.1360    -2.6010     0.6750 o          1 BFQ      -0.375333
     10 O14         -2.8750    -0.1740     1.7960 oh         1 BFQ      -0.525800
     11 C16         -0.6550     0.3520     1.1430 c3         1 BFQ      -0.126400
     12 C19          0.4960     0.3900     0.1520 c3         1 BFQ       0.146800
     13 N22          1.8010     0.5860     0.7930 n3         1 BFQ      -0.638600
     14 C23          2.8700     0.2920    -0.1440 c3         1 BFQ       0.145800
     15 C26          4.2550     0.2290     0.4870 c3         1 BFQ      -0.078400
     16 C29          5.3160    -0.2470    -0.4970 c3         1 BFQ      -0.076400
     17 C32          6.7070    -0.3340     0.1210 c3         1 BFQ      -0.073400
     18 C35          7.7680    -0.7950    -0.8680 c3         1 BFQ      -0.089100
     19 C39          1.9320     1.9250     1.3270 c3         1 BFQ       0.123100
     20 HO14        -3.2620     0.7340     1.8350 ho         1 BFQ       0.480000
     21 H161        -0.3880    -0.3680     1.9240 hc         1 BFQ       0.123200
     22 H162        -0.7530     1.3250     1.6400 hc         1 BFQ       0.123200
     23 H191         0.3010     1.1640    -0.6010 h1         1 BFQ       0.081200
     24 H192         0.5270    -0.5670    -0.3660 h1         1 BFQ       0.081200
     25 H231         2.8860     1.0140    -0.9830 h1         1 BFQ       0.052700
     26 H232         2.6570    -0.6840    -0.5930 h1         1 BFQ       0.052700
     27 H261         4.2200    -0.4460     1.3490 hc         1 BFQ       0.050200
     28 H262         4.5510     1.2100     0.8720 hc         1 BFQ       0.050200
     29 H291         5.3460     0.4300    -1.3580 hc         1 BFQ       0.041700
     30 H292         5.0330    -1.2290    -0.8930 hc         1 BFQ       0.041700
     31 H321         6.6790    -1.0180     0.9750 hc         1 BFQ       0.038700
     32 H322         6.9850     0.6440     0.5250 hc         1 BFQ       0.038700
     33 H351         8.7500    -0.8640    -0.3980 hc         1 BFQ       0.034700
     34 H352         7.5280    -1.7790    -1.2760 hc         1 BFQ       0.034700
     35 H353         7.8530    -0.1040    -1.7080 hc         1 BFQ       0.034700
     36 H391         1.1170     2.1420     2.0170 h1         1 BFQ       0.053700
     37 H392         2.8610     2.0380     1.8870 h1         1 BFQ       0.053700
     38 H393         1.9160     2.7020     0.5430 h1         1 BFQ       0.053700
@<TRIPOS>BOND
     1     1     2 1   
     2     1     3 1   
     3     1     4 1   
     4     1     5 1   
     5     5     6 1   
     6     5    10 1   
     7     5    11 1   
     8     6     7 1   
     9     6     8 1   
    10     6     9 1   
    11    10    20 1   
    12    11    12 1   
    13    11    21 1   
    14    11    22 1   
    15    12    13 1   
    16    12    23 1   
    17    12    24 1   
    18    13    14 1   
    19    13    19 1   
    20    14    15 1   
    21    14    25 1   
    22    14    26 1   
    23    15    16 1   
    24    15    27 1   
    25    15    28 1   
    26    16    17 1   
    27    16    29 1   
    28    16    30 1   
    29    17    18 1   
    30    17    31 1   
    31    17    32 1   
    32    18    33 1   
    33    18    34 1   
    34    18    35 1   
    35    19    36 1   
    36    19    37 1   
    37    19    38 1   
@<TRIPOS>SUBSTRUCTURE
     1 BFQ         1 TEMP              0 ****  ****    0 ROOT
