@<TRIPOS>MOLECULE
BFQ
   38    37     1     0     0
SMALL
No Charge or Current Charge


@<TRIPOS>ATOM
      1 P1          -2.8050     1.1650    -0.6390 p5         1 BFQ       0.847700
      2 O2          -1.8670     1.2310    -1.7950 o          1 BFQ      -0.375333
      3 O3          -2.8900     2.4850     0.0510 o          1 BFQ      -0.375333
      4 O5          -4.1550     0.6950    -1.0660 o          1 BFQ      -0.375333
      5 C7          -2.1290    -0.0390     0.6450 c3         1 BFQ       0.229400
      6 P8          -2.1420    -1.7170    -0.2150 p5         1 BFQ       0.847700
      7 O9          -3.5640    -2.1400    -0.3790 o          1 BFQ      -0.375333
      8 O10         -1.4630    -1.6060    -1.5370 o          1 BFQ      -0.375333
      9 O12         -1.4160    -2.6630     0.6830 o          1 BFQ      -0.375333
     10 O14         -3.0220    -0.0920     1.8010 oh         1 BFQ      -0.525800
     11 C16         -0.7250     0.3630     1.2180 c3         1 BFQ      -0.126400
     12 C19          0.4500     0.4900     0.2100 c3         1 BFQ       0.146800
     13 N22          1.7840     0.6090     0.8540 n3         1 BFQ      -0.638600
     14 C23          2.8850     0.4120    -0.1270 c3         1 BFQ       0.145800
     15 C26          4.2880     0.2300     0.4960 c3         1 BFQ      -0.078400
     16 C29          5.3590    -0.1670    -0.5450 c3         1 BFQ      -0.076400
     17 C32          6.7640    -0.3480     0.0710 c3         1 BFQ      -0.073400
     18 C35          7.8310    -0.7450    -0.9670 c3         1 BFQ      -0.089100
     19 C39          1.9430     1.8430     1.6730 c3         1 BFQ       0.123100
     20 HO14        -3.1920     0.8270     2.1050 ho         1 BFQ       0.480000
     21 H161        -0.4380    -0.3780     1.9750 hc         1 BFQ       0.123200
     22 H162        -0.8330     1.3150     1.7500 hc         1 BFQ       0.123200
     23 H191         0.2800     1.3550    -0.4470 h1         1 BFQ       0.081200
     24 H192         0.4540    -0.4000    -0.4320 h1         1 BFQ       0.081200
     25 H231         2.9180     1.2560    -0.8300 h1         1 BFQ       0.052700
     26 H232         2.6780    -0.4880    -0.7220 h1         1 BFQ       0.052700
     27 H261         4.2360    -0.5430     1.2720 hc         1 BFQ       0.050200
     28 H262         4.6030     1.1600     0.9830 hc         1 BFQ       0.050200
     29 H291         5.4040     0.6020    -1.3260 hc         1 BFQ       0.041700
     30 H292         5.0580    -1.1020    -1.0340 hc         1 BFQ       0.041700
     31 H321         6.7220    -1.1180     0.8520 hc         1 BFQ       0.038700
     32 H322         7.0710     0.5860     0.5590 hc         1 BFQ       0.038700
     33 H351         8.8090    -0.8610    -0.4840 hc         1 BFQ       0.034700
     34 H352         7.5710    -1.6950    -1.4480 hc         1 BFQ       0.034700
     35 H353         7.9220     0.0240    -1.7440 hc         1 BFQ       0.034700
     36 H391         1.1690     1.9160     2.4470 h1         1 BFQ       0.053700
     37 H392         2.9060     1.8530     2.1990 h1         1 BFQ       0.053700
     38 H393         1.8870     2.7420     1.0440 h1         1 BFQ       0.053700
@<TRIPOS>BOND
     1     1     2 1   
     2     1     3 1   
     3     1     4 1   
     4     1     5 1   
     5     5     6 1   
     6     5    10 1   
     7     5    11 1   
     8     6     7 1   
     9     6     8 1   
    10     6     9 1   
    11    10    20 1   
    12    11    12 1   
    13    11    21 1   
    14    11    22 1   
    15    12    13 1   
    16    12    23 1   
    17    12    24 1   
    18    13    14 1   
    19    13    19 1   
    20    14    15 1   
    21    14    25 1   
    22    14    26 1   
    23    15    16 1   
    24    15    27 1   
    25    15    28 1   
    26    16    17 1   
    27    16    29 1   
    28    16    30 1   
    29    17    18 1   
    30    17    31 1   
    31    17    32 1   
    32    18    33 1   
    33    18    34 1   
    34    18    35 1   
    35    19    36 1   
    36    19    37 1   
    37    19    38 1   
@<TRIPOS>SUBSTRUCTURE
     1 BFQ         1 TEMP              0 ****  ****    0 ROOT
