@<TRIPOS>MOLECULE
BFR
   26    25     1     0     0
SMALL
No Charge or Current Charge


@<TRIPOS>ATOM
      1 C2           4.0230     0.1950     0.0220 c3         1 BFR      -0.073400
      2 C3           2.6090    -0.4140    -0.1090 c3         1 BFR      -0.093400
      3 C4           1.5410     0.6290    -0.4930 c3         1 BFR       0.237800
      4 N1           0.2260    -0.0070    -0.6080 nu         1 BFR      -0.957400
      5 C5          -0.9260     0.5800    -0.8960 ce         1 BFR       0.910200
      6 N2          -1.0030     1.8060    -1.1700 n2         1 BFR      -0.997100
      7 N3          -1.8000    -0.1330    -0.1640 ne         1 BFR      -0.907000
      8 C6          -2.9730     0.1630    -0.4050 c2         1 BFR       0.909100
      9 N4          -3.5420     0.1560     0.7390 nv         1 BFR      -1.073200
     10 N5          -3.5310    -0.9230    -0.7510 nv         1 BFR      -1.073200
     11 HC22         4.0090     0.9880     0.7800 hc         1 BFR       0.039700
     12 HC33         2.6280    -1.2060    -0.8680 hc         1 BFR       0.045700
     13 HC32         2.3310    -0.8830     0.8430 hc         1 BFR       0.045700
     14 HC43         1.5110     1.4160     0.2730 h1         1 BFR       0.031700
     15 HC42         1.8170     1.0940    -1.4500 h1         1 BFR       0.031700
     16 HN1          0.0060    -0.7550     0.0350 hn         1 BFR       0.497000
     17 HN22        -0.0460     2.0830    -1.4040 hn         1 BFR       0.381400
     18 HN42        -2.7580    -0.0190     1.3490 hn         1 BFR       0.498750
     19 HN43        -3.9160     1.0760     0.9260 hn         1 BFR       0.498750
     20 HN52        -4.2410    -1.0980    -0.0630 hn         1 BFR       0.498750
     21 HN53        -2.7800    -1.5830    -0.6650 hn         1 BFR       0.498750
     22 C1           5.0950    -0.8450     0.4060 c3         1 BFR      -0.089100
     23 HC11         5.1580    -1.6350    -0.3520 hc         1 BFR       0.033367
     24 HC23         4.3070     0.6650    -0.9280 hc         1 BFR       0.039700
     25 HC13         6.0790    -0.3680     0.4870 hc         1 BFR       0.033367
     26 HC12         4.8580    -1.3080     1.3710 hc         1 BFR       0.033367
@<TRIPOS>BOND
     1     1     2 1   
     2     1    11 1   
     3     1    22 1   
     4     1    24 1   
     5     2     3 1   
     6     2    12 1   
     7     2    13 1   
     8     3     4 1   
     9     3    14 1   
    10     3    15 1   
    11     4     5 1   
    12     4    16 1   
    13     5     6 2   
    14     5     7 1   
    15     6    17 1   
    16     7     8 2   
    17     8     9 1   
    18     8    10 1   
    19     9    18 1   
    20     9    19 1   
    21    10    20 1   
    22    10    21 1   
    23    22    23 1   
    24    22    25 1   
    25    22    26 1   
@<TRIPOS>SUBSTRUCTURE
     1 BFR         1 TEMP              0 ****  ****    0 ROOT
