@<TRIPOS>MOLECULE
BFR
   26    25     1     0     0
SMALL
abcg2


@<TRIPOS>ATOM
      1 C2           4.1640     0.2540    -0.0390 c3         1 BFR      -0.073400
      2 C3           2.8250    -0.4710    -0.0450 c3         1 BFR      -0.093400
      3 C4           1.6470     0.4900    -0.0860 c3         1 BFR       0.237800
      4 N1           0.4010    -0.2300    -0.0830 nu         1 BFR      -0.957400
      5 C5          -0.8270     0.3540    -0.1680 ce         1 BFR       0.910200
      6 N2          -1.0180     1.6340    -0.2560 n2         1 BFR      -0.997100
      7 N3          -1.8210    -0.5920    -0.1450 ne         1 BFR      -0.907000
      8 C6          -3.0870    -0.2640    -0.2300 c2         1 BFR       0.909100
      9 N4          -3.5720     0.9800    -0.3010 nv         1 BFR      -1.073200
     10 N5          -3.9860    -1.2810    -0.2780 nv         1 BFR      -1.073200
     11 HC22         4.2110     0.9250     0.8250 hc         1 BFR       0.039700
     12 HC33         2.7760    -1.1430    -0.9080 hc         1 BFR       0.045700
     13 HC32         2.7480    -1.1010     0.8480 hc         1 BFR       0.045700
     14 HC43         1.7070     1.1700     0.7730 h1         1 BFR       0.031700
     15 HC42         1.7280     1.1170    -0.9830 h1         1 BFR       0.031700
     16 HN1          0.4190    -1.2330    -0.0210 hn         1 BFR       0.497000
     17 HN22        -0.1490     2.1550    -0.2610 hn         1 BFR       0.381400
     18 HN42        -2.8760     1.7220    -0.3470 hn         1 BFR       0.498750
     19 HN43        -4.5500     1.1590    -0.4480 hn         1 BFR       0.498750
     20 HN52        -4.9440    -1.1000    -0.0280 hn         1 BFR       0.498750
     21 HN53        -3.6400    -2.1840    -0.0020 hn         1 BFR       0.498750
     22 C1           5.3440    -0.7080    -0.0040 c3         1 BFR      -0.089100
     23 HC11         5.3390    -1.3660    -0.8740 hc         1 BFR       0.033367
     24 HC23         4.2360     0.8930    -0.9240 hc         1 BFR       0.039700
     25 HC13         6.2940    -0.1730     0.0030 hc         1 BFR       0.033367
     26 HC12         5.3120    -1.3360     0.8880 hc         1 BFR       0.033367
@<TRIPOS>BOND
     1     1     2 1   
     2     1    11 1   
     3     1    22 1   
     4     1    24 1   
     5     2     3 1   
     6     2    12 1   
     7     2    13 1   
     8     3     4 1   
     9     3    14 1   
    10     3    15 1   
    11     4     5 1   
    12     4    16 1   
    13     5     6 2   
    14     5     7 1   
    15     6    17 1   
    16     7     8 2   
    17     8     9 1   
    18     8    10 1   
    19     9    18 1   
    20     9    19 1   
    21    10    20 1   
    22    10    21 1   
    23    22    23 1   
    24    22    25 1   
    25    22    26 1   
@<TRIPOS>SUBSTRUCTURE
     1 BFR         1 TEMP              0 ****  ****    0 ROOT
