@<TRIPOS>MOLECULE
BFS
   33    34     1     0     0
SMALL
No Charge or Current Charge


@<TRIPOS>ATOM
      1 C1          -0.1630    -0.2100    -3.5610 ca         1 BFS      -0.251600
      2 C2          -0.4450    -0.5660    -4.9030 ca         1 BFS       0.211100
      3 C3           0.5910    -0.7470    -5.8340 ca         1 BFS      -0.150000
      4 C4           1.9300    -0.5770    -5.4460 ca         1 BFS      -0.078000
      5 C5           2.2260    -0.2250    -4.1230 ca         1 BFS       0.109000
      6 C6           1.1970    -0.0420    -3.1840 ca         1 BFS      -0.082000
      7 C           -1.2900    -0.0190    -2.5710 c          1 BFS       0.628700
      8 CE1         -1.8850     0.5600    -0.1970 c3         1 BFS       0.161000
      9 CE2         -2.5470     1.9480    -0.3240 c3         1 BFS      -0.107100
     10 C7          -1.1860     0.3710     1.1470 ca         1 BFS      -0.095300
     11 C8          -1.5460    -0.7070     1.9830 ca         1 BFS      -0.098500
     12 C9          -0.9040    -0.8950     3.2190 ca         1 BFS      -0.084000
     13 C10          0.1050    -0.0080     3.6280 ca         1 BFS      -0.011900
     14 C11          0.4750     1.0650     2.8020 ca         1 BFS      -0.084000
     15 C12         -0.1670     1.2540     1.5660 ca         1 BFS      -0.098500
     16 N           -0.9410     0.3210    -1.2870 ns         1 BFS      -0.478900
     17 O           -2.4620    -0.1640    -2.8990 o          1 BFS      -0.652100
     18 O2          -1.7280    -0.7390    -5.3170 oh         1 BFS      -0.548100
     19 F5           3.5130    -0.0610    -3.7460 f          1 BFS      -0.179000
     20 Br4          0.9780    -0.2650     5.3100 br         1 BFS      -0.091100
     21 H3           0.3540    -1.0200    -6.8590 ha         1 BFS       0.138000
     22 H4           2.7330    -0.7170    -6.1660 ha         1 BFS       0.135000
     23 H6           1.4790     0.2310    -2.1720 ha         1 BFS       0.123000
     24 HE1         -2.6830    -0.1920    -0.2760 h1         1 BFS       0.083700
     25 HE21        -1.7980     2.7480    -0.3260 hc         1 BFS       0.049033
     26 HE22        -3.1240     2.0190    -1.2540 hc         1 BFS       0.049033
     27 HE23        -3.2340     2.1200     0.5130 hc         1 BFS       0.049033
     28 H2          -2.3250    -1.4020     1.6760 ha         1 BFS       0.120000
     29 H1          -1.1890    -1.7280     3.8580 ha         1 BFS       0.133000
     30 H5           1.2580     1.7510     3.1180 ha         1 BFS       0.133000
     31 H7           0.1330     2.0870     0.9340 ha         1 BFS       0.120000
     32 HN           0.0450     0.4030    -1.0860 hn         1 BFS       0.322500
     33 HO2         -2.2890    -0.5640    -4.5120 ho         1 BFS       0.525000
@<TRIPOS>BOND
     1     1     2 ar  
     2     1     6 ar  
     3     1     7 1   
     4     2     3 ar  
     5     2    18 1   
     6     3     4 ar  
     7     3    21 1   
     8     4     5 ar  
     9     4    22 1   
    10     5     6 ar  
    11     5    19 1   
    12     6    23 1   
    13     7    16 1   
    14     7    17 2   
    15     8     9 1   
    16     8    10 1   
    17     8    16 1   
    18     8    24 1   
    19     9    25 1   
    20     9    26 1   
    21     9    27 1   
    22    10    11 ar  
    23    10    15 ar  
    24    11    12 ar  
    25    11    28 1   
    26    12    13 ar  
    27    12    29 1   
    28    13    14 ar  
    29    13    20 1   
    30    14    15 ar  
    31    14    30 1   
    32    15    31 1   
    33    16    32 1   
    34    18    33 1   
@<TRIPOS>SUBSTRUCTURE
     1 BFS         1 TEMP              0 ****  ****    0 ROOT
