@<TRIPOS>MOLECULE
BFS
   33    34     1     0     0
SMALL
abcg2


@<TRIPOS>ATOM
      1 C1          -0.1120    -0.2520    -3.4890 ca         1 BFS      -0.251600
      2 C2          -0.4690    -0.5230    -4.8240 ca         1 BFS       0.211100
      3 C3           0.5360    -0.6720    -5.7850 ca         1 BFS      -0.150000
      4 C4           1.8680    -0.5840    -5.4390 ca         1 BFS      -0.078000
      5 C5           2.2030    -0.3430    -4.1160 ca         1 BFS       0.109000
      6 C6           1.2440    -0.1790    -3.1490 ca         1 BFS      -0.082000
      7 C           -1.1980    -0.0650    -2.4930 c          1 BFS       0.628700
      8 CE1         -1.8620     0.5930    -0.2200 c3         1 BFS       0.161000
      9 CE2         -2.5340     1.9560    -0.3470 c3         1 BFS      -0.107100
     10 C7          -1.1840     0.3960     1.1160 ca         1 BFS      -0.095300
     11 C8          -1.4690    -0.7230     1.8890 ca         1 BFS      -0.098500
     12 C9          -0.8500    -0.9270     3.1150 ca         1 BFS      -0.084000
     13 C10          0.0750     0.0020     3.5640 ca         1 BFS      -0.011900
     14 C11          0.3820     1.1260     2.8110 ca         1 BFS      -0.084000
     15 C12         -0.2530     1.3160     1.5930 ca         1 BFS      -0.098500
     16 N           -0.8770     0.3750    -1.2750 ns         1 BFS      -0.478900
     17 O           -2.3730    -0.3150    -2.8010 o          1 BFS      -0.652100
     18 O2          -1.7340    -0.6420    -5.2240 oh         1 BFS      -0.548100
     19 F5           3.5010    -0.2740    -3.7710 f          1 BFS      -0.179000
     20 BR4          0.9290    -0.2640     5.2270 br         1 BFS      -0.091100
     21 H3           0.2550    -0.8680    -6.8120 ha         1 BFS       0.138000
     22 H4           2.6400    -0.7070    -6.1870 ha         1 BFS       0.135000
     23 H6           1.5710    -0.0100    -2.1320 ha         1 BFS       0.123000
     24 HE1         -2.6250    -0.1790    -0.3270 h1         1 BFS       0.083700
     25 HE21        -1.8130     2.7710    -0.2740 hc         1 BFS       0.049033
     26 HE22        -3.0440     2.0410    -1.3060 hc         1 BFS       0.049033
     27 HE23        -3.2750     2.0850     0.4420 hc         1 BFS       0.049033
     28 H2          -2.1880    -1.4520     1.5370 ha         1 BFS       0.120000
     29 H1          -1.0950    -1.8040     3.7000 ha         1 BFS       0.133000
     30 H5           1.1020     1.8540     3.1600 ha         1 BFS       0.133000
     31 H7          -0.0100     2.2040     1.0210 ha         1 BFS       0.120000
     32 HN           0.0680     0.6620    -1.0820 hn         1 BFS       0.322500
     33 HO2         -2.2950    -0.5680    -4.4130 ho         1 BFS       0.525000
@<TRIPOS>BOND
     1     1     2 ar  
     2     1     6 ar  
     3     1     7 1   
     4     2     3 ar  
     5     2    18 1   
     6     3     4 ar  
     7     3    21 1   
     8     4     5 ar  
     9     4    22 1   
    10     5     6 ar  
    11     5    19 1   
    12     6    23 1   
    13     7    16 1   
    14     7    17 2   
    15     8     9 1   
    16     8    10 1   
    17     8    16 1   
    18     8    24 1   
    19     9    25 1   
    20     9    26 1   
    21     9    27 1   
    22    10    11 ar  
    23    10    15 ar  
    24    11    12 ar  
    25    11    28 1   
    26    12    13 ar  
    27    12    29 1   
    28    13    14 ar  
    29    13    20 1   
    30    14    15 ar  
    31    14    30 1   
    32    15    31 1   
    33    16    32 1   
    34    18    33 1   
@<TRIPOS>SUBSTRUCTURE
     1 BFS         1 TEMP              0 ****  ****    0 ROOT
