@<TRIPOS>MOLECULE
BFU
   43    45     1     0     0
SMALL
No Charge or Current Charge


@<TRIPOS>ATOM
      1 Br           1.9870    -0.3460    -6.6480 br         1 BFU      -0.080100
      2 C2           1.2750    -0.4360    -4.8730 ca         1 BFU      -0.122900
      3 C3          -0.1150    -0.3570    -4.6540 ca         1 BFU       0.410900
      4 N4          -0.6700    -0.4190    -3.4210 nb         1 BFU      -0.680000
      5 C5           0.1620    -0.5400    -2.3680 ca         1 BFU       0.518900
      6 C6           1.5550    -0.6570    -2.4960 ca         1 BFU      -0.223000
      7 C7           2.1320    -0.5940    -3.7740 ca         1 BFU      -0.018000
      8 N8          -0.4500    -0.6660    -1.1170 ns         1 BFU      -0.346900
      9 C9          -1.5730    -0.0560    -0.6200 c          1 BFU       0.669100
     10 O10         -2.2350     0.7850    -1.2090 o          1 BFU      -0.564100
     11 N11         -1.8650    -0.4830     0.6510 ns         1 BFU      -0.504900
     12 C12         -2.9440     0.0300     1.4560 cx         1 BFU       0.082700
     13 C13         -3.3100    -0.7660     2.6800 cx         1 BFU      -0.120400
     14 C14         -2.6250     0.5760     2.8350 cx         1 BFU      -0.080400
     15 C15         -1.2010     0.7290     3.3360 ca         1 BFU      -0.168300
     16 C16         -0.3110     1.5770     2.6490 ca         1 BFU       0.256000
     17 F           -0.7220     2.2670     1.5600 f          1 BFU      -0.152000
     18 C18          1.0060     1.7360     3.0850 ca         1 BFU      -0.223000
     19 C19          1.4620     1.0630     4.2240 ca         1 BFU       0.002000
     20 C20          0.5910     0.2250     4.9570 ca         1 BFU      -0.328600
     21 C21         -0.7460     0.0760     4.5060 ca         1 BFU       0.253100
     22 O22         -1.6130    -0.6940     5.2180 oh         1 BFU      -0.537100
     23 C23          1.0880    -0.4890     6.2030 c          1 BFU       0.605700
     24 O24          0.2970    -1.0980     6.9170 o          1 BFU      -0.570100
     25 C25          2.5840    -0.4460     6.5710 c3         1 BFU      -0.167400
     26 C26          3.0170    -1.3380     7.7580 c3         1 BFU      -0.080100
     27 H3          -0.8030    -0.2460    -5.4910 h4         1 BFU       0.038100
     28 H6           2.1760    -0.7890    -1.6140 ha         1 BFU       0.122000
     29 H7           3.2100    -0.6710    -3.9080 ha         1 BFU       0.132000
     30 HN8          0.0280    -1.2900    -0.4830 hn         1 BFU       0.150000
     31 H11         -1.2470    -1.1780     1.0460 hn         1 BFU       0.313500
     32 H12         -3.7530     0.5020     0.8930 h1         1 BFU       0.112700
     33 H131        -2.7370    -1.6650     2.8880 hc         1 BFU       0.080200
     34 H132        -4.3620    -0.8280     2.9440 hc         1 BFU       0.080200
     35 H14         -3.2550     1.3940     3.1770 hc         1 BFU       0.099700
     36 H18          1.6770     2.3930     2.5370 ha         1 BFU       0.141000
     37 H19          2.4940     1.2230     4.5290 ha         1 BFU       0.117000
     38 H22         -1.1050    -1.0080     6.0090 ho         1 BFU       0.520000
     39 H251         2.8530     0.6020     6.7450 hc         1 BFU       0.065200
     40 H252         3.1620    -0.6760     5.6690 hc         1 BFU       0.065200
     41 H261         4.0950    -1.2430     7.9350 hc         1 BFU       0.043700
     42 H262         2.4930    -1.0460     8.6760 hc         1 BFU       0.043700
     43 H263         2.7950    -2.3930     7.5530 hc         1 BFU       0.043700
@<TRIPOS>BOND
     1     1     2 1   
     2     2     3 ar  
     3     2     7 ar  
     4     3     4 ar  
     5     3    27 1   
     6     4     5 ar  
     7     5     6 ar  
     8     5     8 1   
     9     6     7 ar  
    10     6    28 1   
    11     7    29 1   
    12     8     9 1   
    13     8    30 1   
    14     9    10 2   
    15     9    11 1   
    16    11    12 1   
    17    11    31 1   
    18    12    13 1   
    19    12    14 1   
    20    12    32 1   
    21    13    14 1   
    22    13    33 1   
    23    13    34 1   
    24    14    15 1   
    25    14    35 1   
    26    15    16 ar  
    27    15    21 ar  
    28    16    17 1   
    29    16    18 ar  
    30    18    19 ar  
    31    18    36 1   
    32    19    20 ar  
    33    19    37 1   
    34    20    21 ar  
    35    20    23 1   
    36    21    22 1   
    37    22    38 1   
    38    23    24 2   
    39    23    25 1   
    40    25    26 1   
    41    25    39 1   
    42    25    40 1   
    43    26    41 1   
    44    26    42 1   
    45    26    43 1   
@<TRIPOS>SUBSTRUCTURE
     1 BFU         1 TEMP              0 ****  ****    0 ROOT
