@<TRIPOS>MOLECULE
BFU
   43    45     1     0     0
SMALL
abcg2


@<TRIPOS>ATOM
      1 BR           1.9070     0.1210    -6.4910 br         1 BFU      -0.080100
      2 C2           1.2280    -0.1690    -4.7610 ca         1 BFU      -0.122900
      3 C3          -0.0960     0.1170    -4.4740 ca         1 BFU       0.410900
      4 N4          -0.6280    -0.0780    -3.2760 nb         1 BFU      -0.680000
      5 C5           0.1380    -0.5430    -2.3030 ca         1 BFU       0.518900
      6 C6           1.4880    -0.8590    -2.5010 ca         1 BFU      -0.223000
      7 C7           2.0370    -0.6740    -3.7510 ca         1 BFU      -0.018000
      8 N8          -0.4140    -0.7720    -1.0560 ns         1 BFU      -0.346900
      9 C9          -1.5070    -0.1270    -0.5030 c          1 BFU       0.669100
     10 O10         -2.0530     0.8350    -1.0060 o          1 BFU      -0.564100
     11 N11         -1.8980    -0.6870     0.6680 ns         1 BFU      -0.504900
     12 C12         -2.9090    -0.1050     1.4820 cx         1 BFU       0.082700
     13 C13         -3.2530    -0.7880     2.7560 cx         1 BFU      -0.120400
     14 C14         -2.5600     0.5440     2.8050 cx         1 BFU      -0.080400
     15 C15         -1.1480     0.6380     3.2540 ca         1 BFU      -0.168300
     16 C16         -0.2130     1.3470     2.5250 ca         1 BFU       0.256000
     17 F           -0.6210     1.9670     1.4150 f          1 BFU      -0.152000
     18 C18          1.1250     1.4680     2.8730 ca         1 BFU      -0.223000
     19 C19          1.5410     0.8620     4.0350 ca         1 BFU       0.002000
     20 C20          0.6500     0.1570     4.8510 ca         1 BFU      -0.328600
     21 C21         -0.7070     0.0620     4.4570 ca         1 BFU       0.253100
     22 O22         -1.6030    -0.5620     5.2080 oh         1 BFU      -0.537100
     23 C23          1.0890    -0.4680     6.1060 c          1 BFU       0.605700
     24 O24          0.2870    -1.0680     6.8170 o          1 BFU      -0.570100
     25 C25          2.5350    -0.3690     6.5130 c3         1 BFU      -0.167400
     26 C26          2.8580    -1.0520     7.8300 c3         1 BFU      -0.080100
     27 H3          -0.7600     0.5040    -5.2380 h4         1 BFU       0.038100
     28 H6           2.0950    -1.2350    -1.6880 ha         1 BFU       0.122000
     29 H7           3.0780    -0.9110    -3.9250 ha         1 BFU       0.132000
     30 HN8          0.1330    -1.3580    -0.4440 hn         1 BFU       0.150000
     31 H11         -1.5190    -1.5780     0.9450 hn         1 BFU       0.313500
     32 H12         -3.7170     0.3520     0.9250 h1         1 BFU       0.112700
     33 H131        -2.6800    -1.6670     3.0240 hc         1 BFU       0.080200
     34 H132        -4.2940    -0.8380     3.0460 hc         1 BFU       0.080200
     35 H14         -3.1830     1.3930     3.0740 hc         1 BFU       0.099700
     36 H18          1.8060     2.0330     2.2520 ha         1 BFU       0.141000
     37 H19          2.5800     0.9490     4.3170 ha         1 BFU       0.117000
     38 H22         -1.1260    -0.9130     5.9990 ho         1 BFU       0.520000
     39 H251         2.8050     0.6900     6.5590 hc         1 BFU       0.065200
     40 H252         3.1460    -0.7860     5.7070 hc         1 BFU       0.065200
     41 H261         3.9190    -0.9350     8.0490 hc         1 BFU       0.043700
     42 H262         2.2990    -0.6190     8.6580 hc         1 BFU       0.043700
     43 H263         2.6420    -2.1190     7.7980 hc         1 BFU       0.043700
@<TRIPOS>BOND
     1     1     2 1   
     2     2     3 ar  
     3     2     7 ar  
     4     3     4 ar  
     5     3    27 1   
     6     4     5 ar  
     7     5     6 ar  
     8     5     8 1   
     9     6     7 ar  
    10     6    28 1   
    11     7    29 1   
    12     8     9 1   
    13     8    30 1   
    14     9    10 2   
    15     9    11 1   
    16    11    12 1   
    17    11    31 1   
    18    12    13 1   
    19    12    14 1   
    20    12    32 1   
    21    13    14 1   
    22    13    33 1   
    23    13    34 1   
    24    14    15 1   
    25    14    35 1   
    26    15    16 ar  
    27    15    21 ar  
    28    16    17 1   
    29    16    18 ar  
    30    18    19 ar  
    31    18    36 1   
    32    19    20 ar  
    33    19    37 1   
    34    20    21 ar  
    35    20    23 1   
    36    21    22 1   
    37    22    38 1   
    38    23    24 2   
    39    23    25 1   
    40    25    26 1   
    41    25    39 1   
    42    25    40 1   
    43    26    41 1   
    44    26    42 1   
    45    26    43 1   
@<TRIPOS>SUBSTRUCTURE
     1 BFU         1 TEMP              0 ****  ****    0 ROOT
