@<TRIPOS>MOLECULE
BFV
   86    91     1     0     0
SMALL
abcg2


@<TRIPOS>ATOM
      1 C1          -5.8900    -4.3460    -0.2550 c6         1 BFV       0.124800
      2 C13         -5.7130    -2.9560     1.7130 c3         1 BFV       0.171800
      3 C15         -5.1870    -1.6990     1.0340 c3         1 BFV      -0.101400
      4 C17         -4.4320    -0.8340     2.0340 c3         1 BFV       0.081600
      5 C22         -2.2680     1.4600     0.5130 cc         1 BFV       0.323500
      6 C23         -3.4440     2.2380     0.4390 cc         1 BFV      -0.198300
      7 C24         -4.4100     1.4630     1.0340 cd         1 BFV      -0.129300
      8 C3          -7.2700    -4.7710     1.6290 c6         1 BFV       0.124800
      9 C30         -5.8320     1.8510     1.2060 c6         1 BFV      -0.007100
     10 C31         -5.9280     3.3560     0.9810 c6         1 BFV       0.203800
     11 C33         -3.7420     3.5760    -0.1500 c6         1 BFV       0.287100
     12 C39         -0.9110     1.7570     0.0530 ca         1 BFV      -0.112500
     13 C4          -8.2060    -5.5600     0.7340 c6         1 BFV       0.153100
     14 C41         -0.4970     3.0620    -0.2160 ca         1 BFV      -0.086000
     15 C42          0.7960     3.3290    -0.6360 ca         1 BFV      -0.109000
     16 C43          1.6990     2.2930    -0.7850 ca         1 BFV       0.138000
     17 C44          1.3210     0.9720    -0.5160 ca         1 BFV       0.040000
     18 C45          0.0120     0.7260    -0.1030 ca         1 BFV      -0.058000
     19 C54          2.2380    -0.1020    -0.6510 cg         1 BFV      -0.110000
     20 C56          3.0140    -1.0200    -0.7570 ch         1 BFV      -0.081000
     21 C58          3.9450    -2.0880    -0.8790 ca         1 BFV       0.020000
     22 C6          -6.8580    -5.1450    -1.1070 c6         1 BFV       0.153100
     23 C60          5.2870    -1.8140    -1.1450 ca         1 BFV      -0.058000
     24 C61          6.2100    -2.8440    -1.2860 ca         1 BFV      -0.092300
     25 C62          5.7790    -4.1580    -1.1420 ca         1 BFV      -0.097000
     26 C63          4.4450    -4.4420    -0.8680 ca         1 BFV      -0.117000
     27 C64          3.5260    -3.4170    -0.7360 ca         1 BFV      -0.083000
     28 C71          7.6530    -2.5200    -1.5620 c3         1 BFV       0.206100
     29 C75          9.6110    -1.4200    -0.6710 c3         1 BFV       0.206100
     30 C77         10.1880    -0.6950     0.5160 ca         1 BFV      -0.092300
     31 C79         11.4890    -0.9480     0.9380 ca         1 BFV      -0.097000
     32 C80         12.0370    -0.2610     2.0140 ca         1 BFV      -0.114500
     33 C81         11.2820     0.6880     2.6900 ca         1 BFV      -0.108000
     34 C82          9.9790     0.9440     2.2800 ca         1 BFV      -0.114500
     35 C83          9.4370     0.2580     1.2030 ca         1 BFV      -0.097000
     36 C94         -5.5310     6.4440    -0.1540 c3         1 BFV      -0.384100
     37 N19         -3.8130     0.3200     1.4170 na         1 BFV       0.150800
     38 N2          -6.5880    -3.7410     0.8660 n3         1 BFV      -0.713600
     39 N21         -2.5250     0.3010     1.1040 nd         1 BFV      -0.515800
     40 N32         -5.2000     3.7100    -0.2420 n3         1 BFV      -0.731500
     41 N73          8.2440    -1.8380    -0.4270 n7         1 BFV      -0.861400
     42 O5          -7.5210    -6.1370    -0.3550 os         1 BFV      -0.448000
     43 O92         -7.2120     4.7770    -1.2880 o          1 BFV      -0.527000
     44 O96         -4.9480     5.0810    -2.3210 o          1 BFV      -0.527000
     45 S90         -5.7790     4.9780    -1.1310 s6         1 BFV       1.201100
     46 CL52         3.3100     2.6330    -1.3000 cl         1 BFV      -0.184000
     47 H1          -5.0670    -5.0000     0.0860 h1         1 BFV       0.041950
     48 H2          -5.4430    -3.5720    -0.8820 h1         1 BFV       0.041950
     49 H3          -4.8610    -3.5530     2.0810 h1         1 BFV       0.031700
     50 H4          -6.2860    -2.6620     2.5980 h1         1 BFV       0.031700
     51 H5          -4.5130    -1.9480     0.2110 hc         1 BFV       0.064700
     52 H6          -6.0260    -1.1410     0.6090 hc         1 BFV       0.064700
     53 H7          -5.0980    -0.4880     2.8270 h1         1 BFV       0.067200
     54 H8          -3.6320    -1.4000     2.5100 h1         1 BFV       0.067200
     55 H9          -7.8560    -4.3050     2.4250 h1         1 BFV       0.041950
     56 H10         -6.5570    -5.4610     2.1140 h1         1 BFV       0.041950
     57 H11         -6.4730     1.3250     0.4950 hc         1 BFV       0.067700
     58 H12         -6.1990     1.6150     2.2080 hc         1 BFV       0.067700
     59 H13         -6.9720     3.6400     0.8820 h1         1 BFV       0.056700
     60 H14         -5.5140     3.8900     1.8430 h1         1 BFV       0.056700
     61 H15         -3.3070     4.3780     0.4630 h1         1 BFV       0.061700
     62 H16         -3.3170     3.6600    -1.1490 h1         1 BFV       0.061700
     63 H17         -8.6660    -6.3720     1.2990 h1         1 BFV       0.052200
     64 H18         -9.0090    -4.9000     0.3760 h1         1 BFV       0.052200
     65 H19         -1.1710     3.8970    -0.0810 ha         1 BFV       0.114000
     66 H20          1.1000     4.3470    -0.8370 ha         1 BFV       0.131000
     67 H21         -0.2830    -0.2940     0.0980 ha         1 BFV       0.139000
     68 H22         -7.5860    -4.4600    -1.5640 h1         1 BFV       0.052200
     69 H23         -6.3190    -5.6470    -1.9100 h1         1 BFV       0.052200
     70 H24          5.6100    -0.7860    -1.2510 ha         1 BFV       0.131000
     71 H25          6.4900    -4.9690    -1.2430 ha         1 BFV       0.111000
     72 H26          4.1240    -5.4690    -0.7560 ha         1 BFV       0.115000
     73 H27          2.4870    -3.6340    -0.5260 ha         1 BFV       0.119000
     74 H28          8.1890    -3.4390    -1.8440 h1         1 BFV       0.037200
     75 H29          7.7140    -1.8510    -2.4260 h1         1 BFV       0.037200
     76 H30          9.6020    -0.7450    -1.5340 h1         1 BFV       0.035700
     77 H31         10.2760    -2.2510    -0.9490 h1         1 BFV       0.035700
     78 H32         12.0850    -1.6930     0.4210 ha         1 BFV       0.118000
     79 H33         13.0510    -0.4710     2.3270 ha         1 BFV       0.111500
     80 H34         11.7050     1.2230     3.5310 ha         1 BFV       0.111000
     81 H35          9.3810     1.6810     2.8020 ha         1 BFV       0.111500
     82 H36          8.4180     0.4540     0.8940 ha         1 BFV       0.118000
     83 H37         -6.0800     6.3570     0.7820 h1         1 BFV       0.100700
     84 H38         -4.4700     6.5810     0.0420 h1         1 BFV       0.100700
     85 H39         -5.9100     7.2920    -0.7220 h1         1 BFV       0.100700
     86 H41          8.2250    -2.4560     0.3770 hn         1 BFV       0.416000
@<TRIPOS>BOND
     1     1    22 1   
     2     1    38 1   
     3     1    47 1   
     4     1    48 1   
     5     2     3 1   
     6     2    38 1   
     7     2    49 1   
     8     2    50 1   
     9     3     4 1   
    10     3    51 1   
    11     3    52 1   
    12     4    37 1   
    13     4    53 1   
    14     4    54 1   
    15     5     6 1   
    16     5    12 1   
    17     5    39 2   
    18     6     7 2   
    19     6    11 1   
    20     7     9 1   
    21     7    37 1   
    22     8    13 1   
    23     8    38 1   
    24     8    55 1   
    25     8    56 1   
    26     9    10 1   
    27     9    57 1   
    28     9    58 1   
    29    10    40 1   
    30    10    59 1   
    31    10    60 1   
    32    11    40 1   
    33    11    61 1   
    34    11    62 1   
    35    12    14 ar  
    36    12    18 ar  
    37    13    42 1   
    38    13    63 1   
    39    13    64 1   
    40    14    15 ar  
    41    14    65 1   
    42    15    16 ar  
    43    15    66 1   
    44    16    17 ar  
    45    16    46 1   
    46    17    18 ar  
    47    17    19 1   
    48    18    67 1   
    49    19    20 3   
    50    20    21 1   
    51    21    23 ar  
    52    21    27 ar  
    53    22    42 1   
    54    22    68 1   
    55    22    69 1   
    56    23    24 ar  
    57    23    70 1   
    58    24    25 ar  
    59    24    28 1   
    60    25    26 ar  
    61    25    71 1   
    62    26    27 ar  
    63    26    72 1   
    64    27    73 1   
    65    28    41 1   
    66    28    74 1   
    67    28    75 1   
    68    29    30 1   
    69    29    41 1   
    70    29    76 1   
    71    29    77 1   
    72    30    31 ar  
    73    30    35 ar  
    74    31    32 ar  
    75    31    78 1   
    76    32    33 ar  
    77    32    79 1   
    78    33    34 ar  
    79    33    80 1   
    80    34    35 ar  
    81    34    81 1   
    82    35    82 1   
    83    36    45 1   
    84    36    83 1   
    85    36    84 1   
    86    36    85 1   
    87    37    39 1   
    88    40    45 1   
    89    41    86 1   
    90    43    45 2   
    91    44    45 2   
@<TRIPOS>SUBSTRUCTURE
     1 BFV         1 TEMP              0 ****  ****    0 ROOT
