@<TRIPOS>MOLECULE
BFV
   86    91     1     0     0
SMALL
No Charge or Current Charge


@<TRIPOS>ATOM
      1 C1          -6.0610    -4.5550    -0.2320 c6         1 BFV       0.124800
      2 C13         -5.9990    -3.0340     1.7570 c3         1 BFV       0.171800
      3 C15         -5.3320    -1.8340     1.0540 c3         1 BFV      -0.101400
      4 C17         -4.6230    -0.8880     2.0460 c3         1 BFV       0.081600
      5 C22         -2.4240     1.4120     0.4730 cc         1 BFV       0.323500
      6 C23         -3.6170     2.1810     0.4170 cc         1 BFV      -0.198300
      7 C24         -4.5960     1.4480     0.9990 cd         1 BFV      -0.129300
      8 C3          -7.6280    -4.8910     1.6350 c6         1 BFV       0.124800
      9 C30         -6.0340     1.8900     1.0870 c6         1 BFV      -0.007100
     10 C31         -6.1370     3.4000     0.7490 c6         1 BFV       0.203800
     11 C33         -3.8540     3.5330    -0.2160 c6         1 BFV       0.287100
     12 C39         -1.0580     1.7820     0.0230 ca         1 BFV      -0.112500
     13 C4          -8.5180    -5.7620     0.7000 c6         1 BFV       0.153100
     14 C41         -0.6700     3.1110    -0.2770 ca         1 BFV      -0.086000
     15 C42          0.6430     3.4110    -0.6760 ca         1 BFV      -0.109000
     16 C43          1.6080     2.3990    -0.7740 ca         1 BFV       0.138000
     17 C44          1.2580     1.0720    -0.4540 ca         1 BFV       0.040000
     18 C45         -0.0590     0.7780    -0.0530 ca         1 BFV      -0.058000
     19 C54          2.2220     0.0090    -0.5280 cg         1 BFV      -0.110000
     20 C56          3.0510    -0.8830    -0.5950 ch         1 BFV      -0.081000
     21 C58          4.0350    -1.9110    -0.6810 ca         1 BFV       0.020000
     22 C6          -6.9820    -5.4390    -1.1260 c6         1 BFV       0.153100
     23 C60          5.3420    -1.6030    -1.1030 ca         1 BFV      -0.058000
     24 C61          6.3210    -2.6130    -1.1900 ca         1 BFV      -0.092300
     25 C62          5.9820    -3.9370    -0.8480 ca         1 BFV      -0.097000
     26 C63          4.6770    -4.2470    -0.4260 ca         1 BFV      -0.117000
     27 C64          3.7040    -3.2360    -0.3420 ca         1 BFV      -0.083000
     28 C71          7.7310    -2.2710    -1.6510 c3         1 BFV       0.206100
     29 C75          9.8830    -1.2970    -0.8780 c3         1 BFV       0.206100
     30 C77         10.5780    -0.7000     0.3380 ca         1 BFV      -0.092300
     31 C79         11.3680    -1.5110     1.1780 ca         1 BFV      -0.097000
     32 C80         12.0120    -0.9560     2.2980 ca         1 BFV      -0.114500
     33 C81         11.8700     0.4110     2.5870 ca         1 BFV      -0.108000
     34 C82         11.0820     1.2250     1.7550 ca         1 BFV      -0.114500
     35 C83         10.4380     0.6710     0.6340 ca         1 BFV      -0.097000
     36 C94         -5.5340     6.4700     0.1410 c3         1 BFV      -0.384100
     37 N19         -3.9830     0.2620     1.3860 na         1 BFV       0.150800
     38 N2          -6.8290    -3.8840     0.8690 n3         1 BFV      -0.713600
     39 N21         -2.6350     0.2420     1.0640 nd         1 BFV      -0.515800
     40 N32         -5.3100     3.7580    -0.4400 n3         1 BFV      -0.731500
     41 N73          8.4880    -1.6410    -0.5570 n7         1 BFV      -0.861400
     42 O5          -7.7050    -6.3960    -0.3170 os         1 BFV      -0.448000
     43 O92         -7.0940     5.1830    -1.5970 o          1 BFV      -0.527000
     44 O96         -4.6540     5.5260    -2.1720 o          1 BFV      -0.527000
     45 S90         -5.6930     5.2670    -1.1700 s6         1 BFV       1.201100
     46 Cl52         3.2450     2.8320    -1.2800 cl         1 BFV      -0.184000
     47 H1          -5.2660    -5.1880     0.1890 h1         1 BFV       0.041950
     48 H2          -5.5750    -3.8120    -0.8780 h1         1 BFV       0.041950
     49 H3          -5.2190    -3.6420     2.2360 h1         1 BFV       0.031700
     50 H4          -6.6330    -2.6360     2.5610 h1         1 BFV       0.031700
     51 H5          -4.5950    -2.1910     0.3250 hc         1 BFV       0.064700
     52 H6          -6.0940    -1.2730     0.5010 hc         1 BFV       0.064700
     53 H7          -5.3500    -0.5080     2.7750 h1         1 BFV       0.067200
     54 H8          -3.8560    -1.4450     2.5990 h1         1 BFV       0.067200
     55 H9          -8.2770    -4.3860     2.3660 h1         1 BFV       0.041950
     56 H10         -6.9610    -5.5560     2.2030 h1         1 BFV       0.041950
     57 H11         -6.6430     1.3190     0.3740 hc         1 BFV       0.067700
     58 H12         -6.4520     1.7010     2.0850 hc         1 BFV       0.067700
     59 H13         -7.1980     3.6390     0.5810 h1         1 BFV       0.056700
     60 H14         -5.8120     3.9820     1.6240 h1         1 BFV       0.056700
     61 H15         -3.4490     4.3180     0.4410 h1         1 BFV       0.061700
     62 H16         -3.3160     3.5870    -1.1740 h1         1 BFV       0.061700
     63 H17         -9.0310    -6.5370     1.2860 h1         1 BFV       0.052200
     64 H18         -9.2820    -5.1360     0.2170 h1         1 BFV       0.052200
     65 H19         -1.3560     3.9420    -0.1780 ha         1 BFV       0.114000
     66 H20          0.9180     4.4380    -0.9030 ha         1 BFV       0.131000
     67 H21         -0.3030    -0.2550     0.1860 ha         1 BFV       0.139000
     68 H22         -7.7000    -4.8050    -1.6670 h1         1 BFV       0.052200
     69 H23         -6.3770    -5.9790    -1.8680 h1         1 BFV       0.052200
     70 H24          5.6010    -0.5790    -1.3620 ha         1 BFV       0.131000
     71 H25          6.7280    -4.7260    -0.9090 ha         1 BFV       0.111000
     72 H26          4.4200    -5.2710    -0.1630 ha         1 BFV       0.115000
     73 H27          2.6970    -3.4830    -0.0150 ha         1 BFV       0.119000
     74 H28          8.2340    -3.1880    -1.9890 h1         1 BFV       0.037200
     75 H29          7.6700    -1.5940    -2.5150 h1         1 BFV       0.037200
     76 H30          9.9180    -0.5720    -1.7040 h1         1 BFV       0.035700
     77 H31         10.4340    -2.1900    -1.2050 h1         1 BFV       0.035700
     78 H32         11.4840    -2.5710     0.9620 ha         1 BFV       0.118000
     79 H33         12.6210    -1.5870     2.9420 ha         1 BFV       0.111500
     80 H34         12.3680     0.8400     3.4540 ha         1 BFV       0.111000
     81 H35         10.9700     2.2840     1.9780 ha         1 BFV       0.111500
     82 H36          9.8280     1.3060    -0.0050 ha         1 BFV       0.118000
     83 H37         -6.2710     6.2300     0.9130 h1         1 BFV       0.100700
     84 H38         -4.5120     6.4120     0.5300 h1         1 BFV       0.100700
     85 H39         -5.7320     7.4530    -0.2960 h1         1 BFV       0.100700
     86 H41          8.5020    -2.2960     0.2330 hn         1 BFV       0.416000
@<TRIPOS>BOND
     1     1    22 1   
     2     1    38 1   
     3     1    47 1   
     4     1    48 1   
     5     2     3 1   
     6     2    38 1   
     7     2    49 1   
     8     2    50 1   
     9     3     4 1   
    10     3    51 1   
    11     3    52 1   
    12     4    37 1   
    13     4    53 1   
    14     4    54 1   
    15     5     6 1   
    16     5    12 1   
    17     5    39 2   
    18     6     7 2   
    19     6    11 1   
    20     7     9 1   
    21     7    37 1   
    22     8    13 1   
    23     8    38 1   
    24     8    55 1   
    25     8    56 1   
    26     9    10 1   
    27     9    57 1   
    28     9    58 1   
    29    10    40 1   
    30    10    59 1   
    31    10    60 1   
    32    11    40 1   
    33    11    61 1   
    34    11    62 1   
    35    12    14 ar  
    36    12    18 ar  
    37    13    42 1   
    38    13    63 1   
    39    13    64 1   
    40    14    15 ar  
    41    14    65 1   
    42    15    16 ar  
    43    15    66 1   
    44    16    17 ar  
    45    16    46 1   
    46    17    18 ar  
    47    17    19 1   
    48    18    67 1   
    49    19    20 3   
    50    20    21 1   
    51    21    23 ar  
    52    21    27 ar  
    53    22    42 1   
    54    22    68 1   
    55    22    69 1   
    56    23    24 ar  
    57    23    70 1   
    58    24    25 ar  
    59    24    28 1   
    60    25    26 ar  
    61    25    71 1   
    62    26    27 ar  
    63    26    72 1   
    64    27    73 1   
    65    28    41 1   
    66    28    74 1   
    67    28    75 1   
    68    29    30 1   
    69    29    41 1   
    70    29    76 1   
    71    29    77 1   
    72    30    31 ar  
    73    30    35 ar  
    74    31    32 ar  
    75    31    78 1   
    76    32    33 ar  
    77    32    79 1   
    78    33    34 ar  
    79    33    80 1   
    80    34    35 ar  
    81    34    81 1   
    82    35    82 1   
    83    36    45 1   
    84    36    83 1   
    85    36    84 1   
    86    36    85 1   
    87    37    39 1   
    88    40    45 1   
    89    41    86 1   
    90    43    45 2   
    91    44    45 2   
@<TRIPOS>SUBSTRUCTURE
     1 BFV         1 TEMP              0 ****  ****    0 ROOT
