@<TRIPOS>MOLECULE
BFX
   69    73     1     0     0
SMALL
abcg2


@<TRIPOS>ATOM
      1 BR1         -7.3120    -1.6890     0.7640 br         1 BFX      -0.071100
      2 C2          -7.6190    -0.3390    -0.5100 ca         1 BFX      -0.085900
      3 C3          -6.5230     0.2440    -1.1610 ca         1 BFX       0.203100
      4 C4          -8.9110     0.0650    -0.7920 ca         1 BFX      -0.021000
      5 O5          -5.3090    -0.1960    -0.8310 os         1 BFX      -0.326100
      6 C6          -6.7620     1.2410    -2.1050 ca         1 BFX      -0.255000
      7 C7          -9.1530     1.0580    -1.7320 ca         1 BFX      -0.196000
      8 C8          -4.1660     0.3670    -1.4650 c3         1 BFX       0.163600
      9 C9          -8.0660     1.6200    -2.3650 ca         1 BFX       0.225000
     10 C10         -2.9380    -0.3150    -0.9020 c3         1 BFX      -0.081400
     11 F11         -8.2690     2.5800    -3.2770 f          1 BFX      -0.174000
     12 C12         -1.6630     0.2530    -1.5260 c3         1 BFX      -0.029100
     13 C13         -0.4330    -0.4090    -0.9720 ca         1 BFX      -0.080300
     14 C14          0.1410    -1.5050    -1.6110 ca         1 BFX      -0.108500
     15 C15          0.1350     0.0210     0.2240 ca         1 BFX      -0.108500
     16 C16          1.2500    -2.1440    -1.0790 ca         1 BFX      -0.099500
     17 C17          1.2460    -0.6150     0.7580 ca         1 BFX      -0.099500
     18 C18          1.8340    -1.7010     0.1090 ca         1 BFX      -0.056800
     19 C19          3.0430    -2.3620     0.6440 ce         1 BFX      -0.021400
     20 C20          4.1190    -1.6790     1.0490 cf         1 BFX      -0.152400
     21 C21          3.0260    -3.8670     0.7130 c6         1 BFX      -0.034200
     22 C22          4.2390    -0.1870     1.0320 c          1 BFX       0.607300
     23 C23          5.3180    -2.3510     1.6660 c6         1 BFX       0.201000
     24 C24          4.4100    -4.4390     0.9570 c6         1 BFX       0.156800
     25 O25          4.2690     0.4190     2.0950 o          1 BFX      -0.591100
     26 N26          4.4130     0.4480    -0.1500 n          1 BFX      -0.367800
     27 N27          5.0260    -3.7130     2.0490 n7         1 BFX      -0.852400
     28 C28          4.1170    -0.1640    -1.4130 cx         1 BFX       0.040700
     29 C29          4.5370     1.8980    -0.1340 c3         1 BFX       0.156300
     30 C30          4.9180    -1.3100    -1.9280 cx         1 BFX      -0.128900
     31 C31          5.0290     0.0300    -2.5830 cx         1 BFX      -0.128900
     32 C32          5.5600     2.4700     0.8160 ca         1 BFX      -0.064300
     33 C33          6.8940     2.0810     0.8710 ca         1 BFX       0.138000
     34 C34          5.1760     3.5200     1.6490 ca         1 BFX      -0.084000
     35 CL35         7.4990     0.8050    -0.1430 cl         1 BFX      -0.219000
     36 C36          7.8030     2.6850     1.7300 ca         1 BFX      -0.106000
     37 C37          6.0690     4.1490     2.5000 ca         1 BFX      -0.106000
     38 C38          7.3890     3.7240     2.5480 ca         1 BFX      -0.099000
     39 H4          -9.7470    -0.3920    -0.2800 ha         1 BFX       0.133000
     40 H6          -5.9560     1.7250    -2.6390 ha         1 BFX       0.137000
     41 H7         -10.1610     1.3780    -1.9550 ha         1 BFX       0.139000
     42 H8          -4.2250     0.2180    -2.5490 h1         1 BFX       0.038200
     43 H8A         -4.1230     1.4450    -1.2770 h1         1 BFX       0.038200
     44 H10         -2.9070    -0.1790     0.1820 hc         1 BFX       0.064200
     45 H10A        -2.9920    -1.3900    -1.0920 hc         1 BFX       0.064200
     46 H12         -1.6960     0.1200    -2.6110 hc         1 BFX       0.046700
     47 H12A        -1.6180     1.3310    -1.3440 hc         1 BFX       0.046700
     48 H14         -0.2800    -1.8600    -2.5450 ha         1 BFX       0.113500
     49 H15         -0.2980     0.8620     0.7530 ha         1 BFX       0.113500
     50 H16          1.6800    -2.9770    -1.6200 ha         1 BFX       0.123000
     51 H17          1.6480    -0.2690     1.7020 ha         1 BFX       0.123000
     52 H21          2.3370    -4.1820     1.5030 hc         1 BFX       0.057700
     53 H21A         2.6250    -4.2780    -0.2170 hc         1 BFX       0.057700
     54 H23          6.1580    -2.2730     0.9530 h1         1 BFX       0.051700
     55 H23A         5.6230    -1.7890     2.5530 h1         1 BFX       0.051700
     56 H24          4.3350    -5.4940     1.2250 h1         1 BFX       0.031700
     57 H24A         4.9970    -4.3850     0.0260 h1         1 BFX       0.031700
     58 HN27         5.8860    -4.1680     2.3260 hn         1 BFX       0.415000
     59 H28          3.0590    -0.1790    -1.6570 h1         1 BFX       0.082700
     60 H29          4.7910     2.2020    -1.1500 h1         1 BFX       0.052200
     61 H29A         3.5690     2.3550     0.0950 h1         1 BFX       0.052200
     62 H30          5.7660    -1.6410    -1.3440 hc         1 BFX       0.078950
     63 H30A         4.3780    -2.1070    -2.4240 hc         1 BFX       0.078950
     64 H31          4.5620     0.1890    -3.5460 hc         1 BFX       0.078950
     65 H31A         5.9490     0.5790    -2.4360 hc         1 BFX       0.078950
     66 H34          4.1430     3.8430     1.6280 ha         1 BFX       0.115000
     67 H36          8.8300     2.3480     1.7540 ha         1 BFX       0.126000
     68 H37          5.7320     4.9610     3.1310 ha         1 BFX       0.117000
     69 H38          8.0980     4.1960     3.2150 ha         1 BFX       0.117000
@<TRIPOS>BOND
     1     1     2 1   
     2     2     3 ar  
     3     2     4 ar  
     4     3     5 1   
     5     3     6 ar  
     6     4     7 ar  
     7     4    39 1   
     8     5     8 1   
     9     6     9 ar  
    10     6    40 1   
    11     7     9 ar  
    12     7    41 1   
    13     8    10 1   
    14     8    42 1   
    15     8    43 1   
    16     9    11 1   
    17    10    12 1   
    18    10    44 1   
    19    10    45 1   
    20    12    13 1   
    21    12    46 1   
    22    12    47 1   
    23    13    14 ar  
    24    13    15 ar  
    25    14    16 ar  
    26    14    48 1   
    27    15    17 ar  
    28    15    49 1   
    29    16    18 ar  
    30    16    50 1   
    31    17    18 ar  
    32    17    51 1   
    33    18    19 1   
    34    19    20 2   
    35    19    21 1   
    36    20    22 1   
    37    20    23 1   
    38    21    24 1   
    39    21    52 1   
    40    21    53 1   
    41    22    25 2   
    42    22    26 1   
    43    23    27 1   
    44    23    54 1   
    45    23    55 1   
    46    24    27 1   
    47    24    56 1   
    48    24    57 1   
    49    26    28 1   
    50    26    29 1   
    51    27    58 1   
    52    28    30 1   
    53    28    31 1   
    54    28    59 1   
    55    29    32 1   
    56    29    60 1   
    57    29    61 1   
    58    30    31 1   
    59    30    62 1   
    60    30    63 1   
    61    31    64 1   
    62    31    65 1   
    63    32    33 ar  
    64    32    34 ar  
    65    33    35 1   
    66    33    36 ar  
    67    34    37 ar  
    68    34    66 1   
    69    36    38 ar  
    70    36    67 1   
    71    37    38 ar  
    72    37    68 1   
    73    38    69 1   
@<TRIPOS>SUBSTRUCTURE
     1 BFX         1 TEMP              0 ****  ****    0 ROOT
