@<TRIPOS>MOLECULE
BFX
   69    73     1     0     0
SMALL
No Charge or Current Charge


@<TRIPOS>ATOM
      1 Br1         -7.2160    -1.7780     0.6080 br         1 BFX      -0.071100
      2 C2          -7.5240    -0.2810    -0.5520 ca         1 BFX      -0.085900
      3 C3          -6.4420     0.4000    -1.1470 ca         1 BFX       0.203100
      4 C4          -8.8460     0.1280    -0.8010 ca         1 BFX      -0.021000
      5 O5          -5.1600    -0.0360    -0.8740 os         1 BFX      -0.326100
      6 C6          -6.6950     1.4990    -1.9970 ca         1 BFX      -0.255000
      7 C7          -9.0900     1.2220    -1.6480 ca         1 BFX      -0.196000
      8 C8          -3.9970     0.5950    -1.4340 c3         1 BFX       0.163600
      9 C9          -8.0160     1.9000    -2.2400 ca         1 BFX       0.225000
     10 C10         -2.7620    -0.1590    -0.9080 c3         1 BFX      -0.081400
     11 F11         -8.2550     2.9510    -3.0530 f          1 BFX      -0.174000
     12 C12         -1.4320     0.4190    -1.4350 c3         1 BFX      -0.029100
     13 C13         -0.2280    -0.3440    -0.9010 ca         1 BFX      -0.080300
     14 C14          0.2850    -1.4480    -1.6060 ca         1 BFX      -0.108500
     15 C15          0.3770     0.0420     0.3090 ca         1 BFX      -0.108500
     16 C16          1.3950    -2.1530    -1.1120 ca         1 BFX      -0.099500
     17 C17          1.4870    -0.6630     0.8040 ca         1 BFX      -0.099500
     18 C18          2.0130    -1.7610     0.0930 ca         1 BFX      -0.056800
     19 C19          3.2060    -2.4890     0.6240 ce         1 BFX      -0.021400
     20 C20          4.3760    -1.9080     1.0680 cf         1 BFX      -0.152400
     21 C21          2.9870    -4.0060     0.7940 c6         1 BFX      -0.034200
     22 C22          4.6670    -0.4360     0.9750 c          1 BFX       0.607300
     23 C23          5.4650    -2.7380     1.7800 c6         1 BFX       0.201000
     24 C24          4.2750    -4.7720     1.1540 c6         1 BFX       0.156800
     25 O25          5.1310     0.1270     1.9580 o          1 BFX      -0.591100
     26 N26          4.4510     0.2750    -0.2420 n          1 BFX      -0.367800
     27 N27          4.9900    -4.0650     2.2270 n7         1 BFX      -0.852400
     28 C28          4.2070    -0.3780    -1.5330 cx         1 BFX       0.040700
     29 C29          4.3730     1.7660    -0.3030 c3         1 BFX       0.156300
     30 C30          4.9670    -1.5900    -2.0250 cx         1 BFX      -0.128900
     31 C31          5.1460    -0.2620    -2.7120 cx         1 BFX      -0.128900
     32 C32          5.2050     2.6010     0.6730 ca         1 BFX      -0.064300
     33 C33          6.6140     2.6870     0.5750 ca         1 BFX       0.138000
     34 C34          4.5470     3.3200     1.6940 ca         1 BFX      -0.084000
     35 Cl35         7.5050     1.8270    -0.6780 cl         1 BFX      -0.219000
     36 C36          7.3410     3.4740     1.4860 ca         1 BFX      -0.106000
     37 C37          5.2770     4.1050     2.6030 ca         1 BFX      -0.106000
     38 C38          6.6750     4.1830     2.5000 ca         1 BFX      -0.099000
     39 H4          -9.6780    -0.4010    -0.3400 ha         1 BFX       0.133000
     40 H6          -5.8910     2.0490    -2.4730 ha         1 BFX       0.137000
     41 H7         -10.1090     1.5450    -1.8450 ha         1 BFX       0.139000
     42 H8          -4.0180     0.5460    -2.5310 h1         1 BFX       0.038200
     43 H8A         -3.9420     1.6480    -1.1280 h1         1 BFX       0.038200
     44 H10         -2.7610    -0.1250     0.1880 hc         1 BFX       0.064200
     45 H10A        -2.8360    -1.2140    -1.1980 hc         1 BFX       0.064200
     46 H12         -1.4370     0.3940    -2.5320 hc         1 BFX       0.046700
     47 H12A        -1.3620     1.4770    -1.1540 hc         1 BFX       0.046700
     48 H14         -0.1750    -1.7590    -2.5420 ha         1 BFX       0.113500
     49 H15         -0.0140     0.8880     0.8700 ha         1 BFX       0.113500
     50 H16          1.7870    -2.9900    -1.6850 ha         1 BFX       0.123000
     51 H17          1.9390    -0.3560     1.7440 ha         1 BFX       0.123000
     52 H21          2.2410    -4.1660     1.5840 hc         1 BFX       0.057700
     53 H21A         2.5650    -4.4470    -0.1170 hc         1 BFX       0.057700
     54 H23          6.3060    -2.8740     1.0820 h1         1 BFX       0.051700
     55 H23A         5.8570    -2.1920     2.6500 h1         1 BFX       0.051700
     56 H24          4.0200    -5.7910     1.4800 h1         1 BFX       0.031700
     57 H24A         4.9220    -4.8520     0.2670 h1         1 BFX       0.031700
     58 HN27         5.8030    -4.6240     2.5190 hn         1 BFX       0.415000
     59 H28          3.1450    -0.2910    -1.7600 h1         1 BFX       0.082700
     60 H29          4.6420     2.0890    -1.3180 h1         1 BFX       0.052200
     61 H29A         3.3170     2.0340    -0.1760 h1         1 BFX       0.052200
     62 H30          5.7960    -1.9580    -1.4260 hc         1 BFX       0.078950
     63 H30A         4.4000    -2.3610    -2.5410 hc         1 BFX       0.078950
     64 H31          4.7030    -0.1360    -3.6960 hc         1 BFX       0.078950
     65 H31A         6.0930     0.2490    -2.5720 hc         1 BFX       0.078950
     66 H34          3.4640     3.2680     1.7870 ha         1 BFX       0.115000
     67 H36          8.4230     3.5340     1.4040 ha         1 BFX       0.126000
     68 H37          4.7590     4.6530     3.3870 ha         1 BFX       0.117000
     69 H38          7.2410     4.7900     3.2030 ha         1 BFX       0.117000
@<TRIPOS>BOND
     1     1     2 1   
     2     2     3 ar  
     3     2     4 ar  
     4     3     5 1   
     5     3     6 ar  
     6     4     7 ar  
     7     4    39 1   
     8     5     8 1   
     9     6     9 ar  
    10     6    40 1   
    11     7     9 ar  
    12     7    41 1   
    13     8    10 1   
    14     8    42 1   
    15     8    43 1   
    16     9    11 1   
    17    10    12 1   
    18    10    44 1   
    19    10    45 1   
    20    12    13 1   
    21    12    46 1   
    22    12    47 1   
    23    13    14 ar  
    24    13    15 ar  
    25    14    16 ar  
    26    14    48 1   
    27    15    17 ar  
    28    15    49 1   
    29    16    18 ar  
    30    16    50 1   
    31    17    18 ar  
    32    17    51 1   
    33    18    19 1   
    34    19    20 2   
    35    19    21 1   
    36    20    22 1   
    37    20    23 1   
    38    21    24 1   
    39    21    52 1   
    40    21    53 1   
    41    22    25 2   
    42    22    26 1   
    43    23    27 1   
    44    23    54 1   
    45    23    55 1   
    46    24    27 1   
    47    24    56 1   
    48    24    57 1   
    49    26    28 1   
    50    26    29 1   
    51    27    58 1   
    52    28    30 1   
    53    28    31 1   
    54    28    59 1   
    55    29    32 1   
    56    29    60 1   
    57    29    61 1   
    58    30    31 1   
    59    30    62 1   
    60    30    63 1   
    61    31    64 1   
    62    31    65 1   
    63    32    33 ar  
    64    32    34 ar  
    65    33    35 1   
    66    33    36 ar  
    67    34    37 ar  
    68    34    66 1   
    69    36    38 ar  
    70    36    67 1   
    71    37    38 ar  
    72    37    68 1   
    73    38    69 1   
@<TRIPOS>SUBSTRUCTURE
     1 BFX         1 TEMP              0 ****  ****    0 ROOT
