@<TRIPOS>MOLECULE
BFZ
   50    52     1     0     0
SMALL
bcc


@<TRIPOS>ATOM
      1 CAT          6.6310     1.2610     0.4910 c3         1 BFZ      -0.091600
      2 CAS          6.2550    -0.1550     0.0860 c3         1 BFZ       0.174300
      3 NAR          4.9340    -0.2440    -0.5190 n3         1 BFZ      -0.733600
      4 CAW          4.7780    -1.4470    -1.3250 c3         1 BFZ       0.174300
      5 CAX          5.4730    -1.3550    -2.6740 c3         1 BFZ      -0.091600
      6 CAQ          3.8640    -0.1020     0.4490 c3         1 BFZ       0.150800
      7 CAP          2.6580     0.5710    -0.2050 c3         1 BFZ       0.097000
      8 NAO          1.4860     0.6870     0.6650 n          1 BFZ      -0.396000
      9 C            1.4930     1.6650     1.6210 c          1 BFZ       0.700500
     10 O            2.4340     2.4200     1.7600 o          1 BFZ      -0.594500
     11 CA           0.2310     1.7770     2.4530 c3         1 BFZ       0.021800
     12 N           -0.8210     2.3050     1.6130 n2         1 BFZ      -0.559900
     13 CAN          0.4430    -0.2470     0.5270 ca         1 BFZ       0.107600
     14 CAV          0.7590    -1.5880     0.3020 ca         1 BFZ      -0.164000
     15 CAZ         -0.2250    -2.5370     0.1040 ca         1 BFZ      -0.069000
     16 CAY         -1.5580    -2.1490     0.1300 ca         1 BFZ      -0.041900
     17 BR          -2.9120    -3.4360    -0.1180 br         1 BFZ      -0.085100
     18 CAU         -1.8970    -0.8280     0.3310 ca         1 BFZ      -0.052000
     19 CAM         -0.9050     0.1340     0.5280 ca         1 BFZ      -0.207900
     20 CAF         -1.3220     1.5340     0.7360 ce         1 BFZ       0.534500
     21 CAE         -2.4410     2.0560    -0.0820 ca         1 BFZ      -0.183900
     22 CAL         -3.4700     2.7880     0.5100 ca         1 BFZ      -0.064000
     23 CAK         -4.5180     3.2850    -0.2460 ca         1 BFZ      -0.152000
     24 CAJ         -4.5450     3.0660    -1.6180 ca         1 BFZ      -0.087000
     25 CAC         -3.5260     2.3540    -2.2350 ca         1 BFZ      -0.177000
     26 CAD         -2.4970     1.8650    -1.4560 ca         1 BFZ       0.160900
     27 FAA         -1.4980     1.2020    -2.0570 f          1 BFZ      -0.135900
     28 HAT1         7.6510     1.2840     0.8760 hc         1 BFZ       0.039367
     29 HAT2         6.5740     1.9330    -0.3650 hc         1 BFZ       0.039367
     30 HAT3         5.9830     1.6590     1.2740 hc         1 BFZ       0.039367
     31 HAS1         6.9870    -0.5010    -0.6460 h1         1 BFZ       0.026700
     32 HAS2         6.3480    -0.8330     0.9500 h1         1 BFZ       0.026700
     33 HAW1         5.1270    -2.3400    -0.7820 h1         1 BFZ       0.026700
     34 HAW2         3.7130    -1.6070    -1.5080 h1         1 BFZ       0.026700
     35 HAQ1         3.5820    -1.0670     0.9000 h1         1 BFZ       0.041200
     36 HAQ2         4.1970     0.5250     1.2750 h1         1 BFZ       0.041200
     37 HAX1         5.0930    -0.5090    -3.2460 hc         1 BFZ       0.039367
     38 HAX2         6.5530    -1.2390    -2.5780 hc         1 BFZ       0.039367
     39 HAX3         5.2960    -2.2630    -3.2510 hc         1 BFZ       0.039367
     40 HAP1         2.9470     1.5700    -0.5290 h1         1 BFZ       0.070700
     41 HAP2         2.3440     0.0320    -1.0980 h1         1 BFZ       0.070700
     42 HA1C        -0.0280     0.8040     2.8870 h1         1 BFZ       0.082200
     43 HA2C         0.4210     2.4720     3.2680 h1         1 BFZ       0.082200
     44 HAV          1.7900    -1.9130     0.2960 ha         1 BFZ       0.146000
     45 HAZ          0.0570    -3.5680    -0.0590 ha         1 BFZ       0.151000
     46 HAU         -2.9350    -0.5210     0.3410 ha         1 BFZ       0.156000
     47 HAL         -3.4440     2.9490     1.5800 ha         1 BFZ       0.149000
     48 HAK         -5.3140     3.8380     0.2330 ha         1 BFZ       0.141000
     49 HAJ         -5.3610     3.4520    -2.2150 ha         1 BFZ       0.138000
     50 HAC         -3.5250     2.1870    -3.3040 ha         1 BFZ       0.153000
@<TRIPOS>BOND
     1     1     2 1   
     2     1    28 1   
     3     1    29 1   
     4     1    30 1   
     5     2     3 1   
     6     2    31 1   
     7     2    32 1   
     8     3     4 1   
     9     3     6 1   
    10     4     5 1   
    11     4    33 1   
    12     4    34 1   
    13     5    37 1   
    14     5    38 1   
    15     5    39 1   
    16     6     7 1   
    17     6    35 1   
    18     6    36 1   
    19     7     8 1   
    20     7    40 1   
    21     7    41 1   
    22     8     9 1   
    23     8    13 1   
    24     9    10 2   
    25     9    11 1   
    26    11    12 1   
    27    11    42 1   
    28    11    43 1   
    29    12    20 2   
    30    13    14 ar  
    31    13    19 ar  
    32    14    15 ar  
    33    14    44 1   
    34    15    16 ar  
    35    15    45 1   
    36    16    17 1   
    37    16    18 ar  
    38    18    19 ar  
    39    18    46 1   
    40    19    20 1   
    41    20    21 1   
    42    21    22 ar  
    43    21    26 ar  
    44    22    23 ar  
    45    22    47 1   
    46    23    24 ar  
    47    23    48 1   
    48    24    25 ar  
    49    24    49 1   
    50    25    26 ar  
    51    25    50 1   
    52    26    27 1   
@<TRIPOS>SUBSTRUCTURE
     1 BFZ         1 TEMP              0 ****  ****    0 ROOT
