@<TRIPOS>MOLECULE
BFZ
   50    52     1     0     0
SMALL
No Charge or Current Charge


@<TRIPOS>ATOM
      1 CAT          6.7460     0.6170     1.1750 c3         1 BFZ      -0.091600
      2 CAS          6.3450    -0.4310     0.1150 c3         1 BFZ       0.174300
      3 NAR          5.1110    -0.1130    -0.6610 n3         1 BFZ      -0.733600
      4 CAW          4.8980    -1.0460    -1.8050 c3         1 BFZ       0.174300
      5 CAX          6.0200    -1.0560    -2.8650 c3         1 BFZ      -0.091600
      6 CAQ          3.9000     0.0130     0.2090 c3         1 BFZ       0.150800
      7 CAP          2.6300     0.5850    -0.4790 c3         1 BFZ       0.097000
      8 NAO          1.4760     0.7730     0.4430 n          1 BFZ      -0.236400
      9 C            1.4620     1.9420     1.2450 c          1 BFZ       0.558000
     10 O            2.3300     2.8040     1.1520 o          1 BFZ      -0.519000
     11 CA           0.3260     2.0860     2.2770 c3         1 BFZ       0.021800
     12 N           -0.9630     2.3790     1.6240 n2         1 BFZ      -0.559900
     13 CAN          0.3920    -0.1890     0.3860 ca         1 BFZ       0.015000
     14 CAV          0.7130    -1.5660     0.3640 ca         1 BFZ      -0.146000
     15 CAZ         -0.2820    -2.5530     0.4390 ca         1 BFZ      -0.051000
     16 CAY         -1.6210    -2.1790     0.5850 ca         1 BFZ      -0.041900
     17 Br          -2.9840    -3.5160     0.6920 br         1 BFZ      -0.085100
     18 CAU         -1.9610    -0.8230     0.6740 ca         1 BFZ      -0.034000
     19 CAM         -0.9680     0.1790     0.6000 ca         1 BFZ      -0.207900
     20 CAF         -1.4200     1.6040     0.6910 ce         1 BFZ       0.534500
     21 CAE         -2.6280     2.0250    -0.0860 ca         1 BFZ      -0.183900
     22 CAL         -3.5870     2.8930     0.4870 ca         1 BFZ      -0.046000
     23 CAK         -4.7040     3.3140    -0.2560 ca         1 BFZ      -0.134000
     24 CAJ         -4.8690     2.8920    -1.5850 ca         1 BFZ      -0.069000
     25 CAC         -3.9060     2.0570    -2.1730 ca         1 BFZ      -0.159000
     26 CAD         -2.7900     1.6340    -1.4330 ca         1 BFZ       0.196000
     27 FAA         -1.8620     0.8680    -2.0480 f          1 BFZ      -0.171000
     28 HAT1         7.7490     0.3940     1.5590 hc         1 BFZ       0.039367
     29 HAT2         6.7640     1.6220     0.7380 hc         1 BFZ       0.039367
     30 HAT3         6.0580     0.6130     2.0270 hc         1 BFZ       0.039367
     31 HAS1         7.2010    -0.5100    -0.5650 h1         1 BFZ       0.026700
     32 HAS2         6.2390    -1.4060     0.6090 h1         1 BFZ       0.026700
     33 HAW1         4.7560    -2.0700    -1.4340 h1         1 BFZ       0.026700
     34 HAW2         3.9820    -0.7730    -2.3430 h1         1 BFZ       0.026700
     35 HAQ1         3.6640    -0.9620     0.6540 h1         1 BFZ       0.041200
     36 HAQ2         4.1140     0.6890     1.0450 h1         1 BFZ       0.041200
     37 HAX1         6.2550    -0.0360    -3.1900 hc         1 BFZ       0.039367
     38 HAX2         6.9320    -1.5260    -2.4820 hc         1 BFZ       0.039367
     39 HAX3         5.6980    -1.6280    -3.7430 hc         1 BFZ       0.039367
     40 HAP1         2.8810     1.5440    -0.9490 h1         1 BFZ       0.070700
     41 HAP2         2.3130    -0.0860    -1.2850 h1         1 BFZ       0.070700
     42 HA1C         0.2800     1.1550     2.8560 h1         1 BFZ       0.082200
     43 HA2C         0.6060     2.8920     2.9670 h1         1 BFZ       0.082200
     44 HAV          1.7440    -1.8950     0.2800 ha         1 BFZ       0.128000
     45 HAZ         -0.0110    -3.6050     0.3960 ha         1 BFZ       0.133000
     46 HAU         -3.0060    -0.5500     0.8100 ha         1 BFZ       0.138000
     47 HAL         -3.4780     3.2340     1.5150 ha         1 BFZ       0.131000
     48 HAK         -5.4410     3.9710     0.2000 ha         1 BFZ       0.123000
     49 HAJ         -5.7330     3.2210    -2.1590 ha         1 BFZ       0.120000
     50 HAC         -4.0170     1.7430    -3.2080 ha         1 BFZ       0.135000
@<TRIPOS>BOND
     1     1     2 1   
     2     1    28 1   
     3     1    29 1   
     4     1    30 1   
     5     2     3 1   
     6     2    31 1   
     7     2    32 1   
     8     3     4 1   
     9     3     6 1   
    10     4     5 1   
    11     4    33 1   
    12     4    34 1   
    13     5    37 1   
    14     5    38 1   
    15     5    39 1   
    16     6     7 1   
    17     6    35 1   
    18     6    36 1   
    19     7     8 1   
    20     7    40 1   
    21     7    41 1   
    22     8     9 1   
    23     8    13 1   
    24     9    10 2   
    25     9    11 1   
    26    11    12 1   
    27    11    42 1   
    28    11    43 1   
    29    12    20 2   
    30    13    14 ar  
    31    13    19 ar  
    32    14    15 ar  
    33    14    44 1   
    34    15    16 ar  
    35    15    45 1   
    36    16    17 1   
    37    16    18 ar  
    38    18    19 ar  
    39    18    46 1   
    40    19    20 1   
    41    20    21 1   
    42    21    22 ar  
    43    21    26 ar  
    44    22    23 ar  
    45    22    47 1   
    46    23    24 ar  
    47    23    48 1   
    48    24    25 ar  
    49    24    49 1   
    50    25    26 ar  
    51    25    50 1   
    52    26    27 1   
@<TRIPOS>SUBSTRUCTURE
     1 BFZ         1 TEMP              0 ****  ****    0 ROOT
