@<TRIPOS>MOLECULE
BG0
   43    45     1     0     0
SMALL
No Charge or Current Charge


@<TRIPOS>ATOM
      1 C01         -3.2610     3.2170    -2.1950 c3         1 BG0       0.144900
      2 O02         -3.5290     1.9410    -1.5860 os         1 BG0      -0.327100
      3 C03         -2.5710     1.2090    -0.9020 ca         1 BG0       0.124100
      4 C04         -1.2510     1.7090    -0.7750 ca         1 BG0      -0.177000
      5 C05         -0.2630     0.9840    -0.0840 ca         1 BG0      -0.042300
      6 C06          1.1650     1.5340     0.0480 c6         1 BG0       0.134100
      7 C07          1.5050     1.8110     1.5120 ce         1 BG0      -0.265900
      8 C08          0.7320     2.8040     2.1900 cg         1 BG0       0.316700
      9 N09          0.1370     3.6440     2.7380 n1         1 BG0      -0.505000
     10 C10          2.4890     1.1300     2.1280 c2         1 BG0       0.412100
     11 N11          2.8770     1.2770     3.4390 nv         1 BG0      -0.960000
     12 O12          3.2590     0.1860     1.5210 os         1 BG0      -0.259200
     13 C13          3.1550    -0.0700     0.1660 ca         1 BG0       0.086100
     14 C14          4.0630    -0.9790    -0.4410 ca         1 BG0       0.259000
     15 N15          5.0460    -1.5980     0.3320 nv         1 BG0      -1.054000
     16 C16          3.9590    -1.2290    -1.8480 ca         1 BG0       0.211000
     17 N17          4.7940    -2.1190    -2.5120 nv         1 BG0      -1.039000
     18 C18          2.9740    -0.5670    -2.5990 ca         1 BG0      -0.139000
     19 C19          2.0840     0.3270    -1.9850 ca         1 BG0      -0.087000
     20 C20          2.1660     0.5770    -0.6040 ca         1 BG0      -0.106300
     21 C21         -0.5920    -0.2540     0.4890 ca         1 BG0      -0.097000
     22 C22         -1.8910    -0.7660     0.3740 ca         1 BG0      -0.006900
     23 Br          -2.2730    -2.4660     1.1810 br         1 BG0      -0.085100
     24 C24         -2.8970    -0.0540    -0.3150 ca         1 BG0       0.089100
     25 O25         -4.1510    -0.6590    -0.3660 os         1 BG0      -0.337100
     26 C26         -5.3080    -0.1030    -1.0160 c3         1 BG0       0.149900
     27 H1          -2.9390     3.9490    -1.4430 h1         1 BG0       0.042700
     28 H2          -2.4810     3.1290    -2.9610 h1         1 BG0       0.042700
     29 H3          -4.1680     3.6040    -2.6770 h1         1 BG0       0.042700
     30 H5           1.2330     2.4880    -0.4940 hc         1 BG0       0.068700
     31 H8           2.6560     2.1700     3.8690 hn         1 BG0       0.500500
     32 H9           3.7970     0.9100     3.6660 hn         1 BG0       0.500500
     33 H11          5.1690    -1.2800     1.2920 hn         1 BG0       0.450000
     34 H12          5.8720    -1.9690    -0.1310 hn         1 BG0       0.450000
     35 H13          5.3120    -2.8040    -1.9660 hn         1 BG0       0.426500
     36 H14          4.5930    -2.3670    -3.4790 hn         1 BG0       0.426500
     37 H15          2.8890    -0.7510    -3.6670 ha         1 BG0       0.116000
     38 H16          1.3220     0.8210    -2.5850 ha         1 BG0       0.122000
     39 H17          0.1640    -0.8230     1.0260 ha         1 BG0       0.134000
     40 H18         -5.5860     0.8590    -0.5680 h1         1 BG0       0.039367
     41 H19         -5.1270     0.0350    -2.0890 h1         1 BG0       0.039367
     42 H20         -6.1630    -0.7820    -0.9060 h1         1 BG0       0.039367
     43 H7          -0.9740     2.6650    -1.2080 ha         1 BG0       0.121000
@<TRIPOS>BOND
     1     1     2 1   
     2     1    27 1   
     3     1    28 1   
     4     1    29 1   
     5     2     3 1   
     6     3     4 ar  
     7     3    24 ar  
     8     4     5 ar  
     9     4    43 1   
    10     5     6 1   
    11     5    21 ar  
    12     6     7 1   
    13     6    20 1   
    14     6    30 1   
    15     7     8 1   
    16     7    10 2   
    17     8     9 3   
    18    10    11 1   
    19    10    12 1   
    20    11    31 1   
    21    11    32 1   
    22    12    13 1   
    23    13    14 ar  
    24    13    20 ar  
    25    14    15 1   
    26    14    16 ar  
    27    15    33 1   
    28    15    34 1   
    29    16    17 1   
    30    16    18 ar  
    31    17    35 1   
    32    17    36 1   
    33    18    19 ar  
    34    18    37 1   
    35    19    20 ar  
    36    19    38 1   
    37    21    22 ar  
    38    21    39 1   
    39    22    23 1   
    40    22    24 ar  
    41    24    25 1   
    42    25    26 1   
    43    26    40 1   
    44    26    41 1   
    45    26    42 1   
@<TRIPOS>SUBSTRUCTURE
     1 BG0         1 TEMP              0 ****  ****    0 ROOT
