@<TRIPOS>MOLECULE
BG0
   43    45     1     0     0
SMALL
abcg2


@<TRIPOS>ATOM
      1 C01         -3.0700     2.8380    -2.7760 c3         1 BG0       0.144900
      2 O02         -3.3800     1.6430    -2.0830 os         1 BG0      -0.327100
      3 C03         -2.4540     1.1160    -1.2690 ca         1 BG0       0.124100
      4 C04         -1.1860     1.6500    -1.0610 ca         1 BG0      -0.177000
      5 C05         -0.2850     1.0280    -0.2040 ca         1 BG0      -0.042300
      6 C06          1.1050     1.6140    -0.0280 c6         1 BG0       0.134100
      7 C07          1.4540     1.8390     1.4210 ce         1 BG0      -0.265900
      8 C08          0.7770     2.8510     2.1200 cg         1 BG0       0.316700
      9 N09          0.2130     3.6910     2.6840 n1         1 BG0      -0.505000
     10 C10          2.3350     1.0420     2.0960 c2         1 BG0       0.412100
     11 N11          2.5800     1.0680     3.4130 nv         1 BG0      -0.960000
     12 O12          3.0320     0.0880     1.4800 os         1 BG0      -0.259200
     13 C13          3.0250    -0.0020     0.1050 ca         1 BG0       0.086100
     14 C14          3.9850    -0.8670    -0.4220 ca         1 BG0       0.259000
     15 N15          4.9040    -1.4930     0.4020 nv         1 BG0      -1.054000
     16 C16          4.0320    -1.0100    -1.8210 ca         1 BG0       0.211000
     17 N17          5.0030    -1.8390    -2.3860 nv         1 BG0      -1.039000
     18 C18          3.1550    -0.2690    -2.6100 ca         1 BG0      -0.139000
     19 C19          2.2310     0.5950    -2.0480 ca         1 BG0      -0.087000
     20 C20          2.1420     0.7290    -0.6700 ca         1 BG0      -0.106300
     21 C21         -0.6480    -0.1340     0.4580 ca         1 BG0      -0.097000
     22 C22         -1.9160    -0.6580     0.2520 ca         1 BG0      -0.006900
     23 BR          -2.4140    -2.2490     1.1310 br         1 BG0      -0.085100
     24 C24         -2.8320    -0.0620    -0.6050 ca         1 BG0       0.089100
     25 O25         -4.0500    -0.6060    -0.8260 os         1 BG0      -0.337100
     26 C26         -5.1060    -0.0480    -0.0460 c3         1 BG0       0.149900
     27 H1          -2.8560     3.6620    -2.0900 h1         1 BG0       0.042700
     28 H2          -2.2190     2.7090    -3.4490 h1         1 BG0       0.042700
     29 H3          -3.9490     3.0880    -3.3640 h1         1 BG0       0.042700
     30 H5           1.1160     2.5790    -0.5450 hc         1 BG0       0.068700
     31 H8           2.1870     1.8020     3.9770 hn         1 BG0       0.500500
     32 H9           3.4350     0.6620     3.7600 hn         1 BG0       0.500500
     33 H11          4.5840    -1.7200     1.3290 hn         1 BG0       0.450000
     34 H12          5.4000    -2.2690    -0.0020 hn         1 BG0       0.450000
     35 H13          5.0190    -2.7760    -2.0040 hn         1 BG0       0.426500
     36 H14          4.9120    -1.9110    -3.3890 hn         1 BG0       0.426500
     37 H15          3.1990    -0.3810    -3.6870 ha         1 BG0       0.116000
     38 H16          1.5540     1.1500    -2.6870 ha         1 BG0       0.122000
     39 H17          0.0430    -0.6270     1.1280 ha         1 BG0       0.134000
     40 H18         -4.9480    -0.2200     1.0210 h1         1 BG0       0.039367
     41 H19         -5.2160     1.0240    -0.2200 h1         1 BG0       0.039367
     42 H20         -6.0220    -0.5490    -0.3510 h1         1 BG0       0.039367
     43 H7          -0.8830     2.5600    -1.5630 ha         1 BG0       0.121000
@<TRIPOS>BOND
     1     1     2 1   
     2     1    27 1   
     3     1    28 1   
     4     1    29 1   
     5     2     3 1   
     6     3     4 ar  
     7     3    24 ar  
     8     4     5 ar  
     9     4    43 1   
    10     5     6 1   
    11     5    21 ar  
    12     6     7 1   
    13     6    20 1   
    14     6    30 1   
    15     7     8 1   
    16     7    10 2   
    17     8     9 3   
    18    10    11 1   
    19    10    12 1   
    20    11    31 1   
    21    11    32 1   
    22    12    13 1   
    23    13    14 ar  
    24    13    20 ar  
    25    14    15 1   
    26    14    16 ar  
    27    15    33 1   
    28    15    34 1   
    29    16    17 1   
    30    16    18 ar  
    31    17    35 1   
    32    17    36 1   
    33    18    19 ar  
    34    18    37 1   
    35    19    20 ar  
    36    19    38 1   
    37    21    22 ar  
    38    21    39 1   
    39    22    23 1   
    40    22    24 ar  
    41    24    25 1   
    42    25    26 1   
    43    26    40 1   
    44    26    41 1   
    45    26    42 1   
@<TRIPOS>SUBSTRUCTURE
     1 BG0         1 TEMP              0 ****  ****    0 ROOT
