@<TRIPOS>MOLECULE
BG1
   40    39     1     0     0
SMALL
bcc


@<TRIPOS>ATOM
      1 N           32.2860     6.8170    -0.7620 n8         1 BG1      -0.896800
      2 CA          31.0710     6.7180     0.0280 c3         1 BG1      -0.015500
      3 CB          30.1840     7.9310    -0.2250 c3         1 BG1       0.164400
      4 OG          30.9150     9.1330     0.0430 os         1 BG1      -0.435900
      5 C           30.2160     5.4350    -0.1820 c          1 BG1       0.910600
      6 O           30.6290     4.6060    -1.0120 o          1 BG1      -0.830300
      7 C1          35.8310     9.8100    -1.8910 c3         1 BG1      -0.086100
      8 C3          33.8280    10.4130    -0.4910 c3         1 BG1      -0.068400
      9 C4          32.3770    10.9110    -0.4500 c3         1 BG1       0.176500
     10 C5          31.4380     9.8230    -0.9520 c          1 BG1       0.638100
     11 C7          31.6280    14.5230     1.1850 c3         1 BG1       0.191100
     12 N1          32.0370    11.4230     0.8800 n3         1 BG1      -0.757500
     13 O1          31.2220     9.6380    -2.1230 o          1 BG1      -0.532000
     14 S           30.5420    12.0970     1.0620 s6         1 BG1       1.419800
     15 OXT         29.1810     5.3640     0.5110 o          1 BG1      -0.830300
     16 HN1         32.9430     6.1190    -0.4370 hn         1 BG1       0.332800
     17 HN2A        32.0760     6.5500    -1.7160 hn         1 BG1       0.332800
     18 HA          31.3660     6.7450     1.0830 h1         1 BG1       0.044700
     19 HB1         29.8020     7.9370    -1.2470 h1         1 BG1       0.069200
     20 HB2         29.3380     7.9330     0.4580 h1         1 BG1       0.069200
     21 H11         36.1910     9.5880    -2.8950 hc         1 BG1       0.026033
     22 H12         36.4100    10.6530    -1.5100 hc         1 BG1       0.026033
     23 H13         36.0510     8.9460    -1.2620 hc         1 BG1       0.026033
     24 H21         34.1460    10.9800    -2.5470 hc         1 BG1       0.055700
     25 H22         33.8010     9.2770    -2.3300 hc         1 BG1       0.055700
     26 H31         33.9440     9.5190     0.1260 hc         1 BG1       0.050700
     27 H32         34.4540    11.1930    -0.0480 hc         1 BG1       0.050700
     28 H4          32.3060    11.7380    -1.1580 h1         1 BG1       0.085700
     29 H61         32.2430     9.8110     2.2680 h1         1 BG1       0.048367
     30 H62         33.6830    10.8120     2.0100 h1         1 BG1       0.048367
     31 H63         32.3530    11.4450     2.9440 h1         1 BG1       0.048367
     32 H71         31.0300    14.9880     0.4000 h1         1 BG1       0.043033
     33 H72         31.9020    15.2840     1.9120 h1         1 BG1       0.043033
     34 H73         32.5450    14.1320     0.7500 h1         1 BG1       0.043033
     35 HN2         30.1430    13.7800     2.4540 hn         1 BG1       0.423800
     36 C6          32.5990    10.8250     2.0850 c3         1 BG1       0.203100
     37 C2          34.3400    10.1210    -1.8980 c3         1 BG1      -0.078400
     38 N2          30.9280    13.4620     1.8960 n7         1 BG1      -0.844100
     39 O2          30.0610    12.3750    -0.2850 o          1 BG1      -0.625300
     40 O3          29.6870    11.3320     1.9520 o          1 BG1      -0.625300
@<TRIPOS>BOND
     1     1     2 1   
     2     1    16 1   
     3     1    17 1   
     4     2     3 1   
     5     2     5 1   
     6     2    18 1   
     7     3     4 1   
     8     3    19 1   
     9     3    20 1   
    10     4    10 1   
    11     5     6 1   
    12     5    15 1   
    13     7    21 1   
    14     7    22 1   
    15     7    23 1   
    16     7    37 1   
    17     8     9 1   
    18     8    26 1   
    19     8    27 1   
    20     8    37 1   
    21     9    10 1   
    22     9    12 1   
    23     9    28 1   
    24    10    13 2   
    25    11    32 1   
    26    11    33 1   
    27    11    34 1   
    28    11    38 1   
    29    12    14 1   
    30    12    36 1   
    31    14    38 1   
    32    14    39 2   
    33    14    40 2   
    34    24    37 1   
    35    25    37 1   
    36    29    36 1   
    37    30    36 1   
    38    31    36 1   
    39    35    38 1   
@<TRIPOS>SUBSTRUCTURE
     1 BG1         1 TEMP              0 ****  ****    0 ROOT
