@<TRIPOS>MOLECULE
BG1
   40    39     1     0     0
SMALL
No Charge or Current Charge


@<TRIPOS>ATOM
      1 N           31.7720     6.7830    -1.9260 n8         1 BG1      -1.007200
      2 CA          31.5010     6.4120    -0.4760 c3         1 BG1      -0.015500
      3 CB          30.7230     7.5000     0.3260 c3         1 BG1       0.187600
      4 OG          31.5030     8.7150     0.4050 os         1 BG1      -0.459100
      5 C           30.7740     5.0320    -0.2510 c          1 BG1       0.700000
      6 O           29.6320     4.9010    -0.6720 o          1 BG1      -0.725000
      7 C1          35.8200     9.4160    -1.4560 c3         1 BG1      -0.086100
      8 C3          33.7960    10.4690    -0.2630 c3         1 BG1      -0.068400
      9 C4          32.3060    10.9090    -0.3470 c3         1 BG1       0.176500
     10 C5          31.3390     9.6910    -0.5550 c          1 BG1       0.589100
     11 C7          31.8240    14.7800     1.4690 c3         1 BG1       0.191100
     12 N1          31.9320    11.8810     0.7380 n3         1 BG1      -0.757500
     13 O1          30.5030     9.6450    -1.4510 o          1 BG1      -0.483000
     14 S           30.4560    12.6970     0.4450 s6         1 BG1       1.278200
     15 OXT         31.4070     4.1210     0.2650 o          1 BG1      -0.725000
     16 HN1         32.2660     6.0090    -2.3870 hn         1 BG1       0.388000
     17 HN2A        30.8770     6.8270    -2.4300 hn         1 BG1       0.388000
     18 HA          32.4850     6.3140     0.0050 h1         1 BG1       0.044700
     19 HB1         29.7300     7.6730    -0.1120 h1         1 BG1       0.069200
     20 HB2         30.5600     7.1130     1.3410 h1         1 BG1       0.069200
     21 H11         36.1560     8.9520    -2.3910 hc         1 BG1       0.026033
     22 H12         36.4420    10.3000    -1.2690 hc         1 BG1       0.026033
     23 H13         35.9800     8.7000    -0.6410 hc         1 BG1       0.026033
     24 H21         34.2010    10.4930    -2.4000 hc         1 BG1       0.055700
     25 H22         33.7480     8.9070    -1.7790 hc         1 BG1       0.055700
     26 H31         33.9370     9.7770     0.5750 hc         1 BG1       0.050700
     27 H32         34.4080    11.3540    -0.0470 hc         1 BG1       0.050700
     28 H4          32.2390    11.4530    -1.2990 h1         1 BG1       0.085700
     29 H61         31.3270    10.5480     2.3020 h1         1 BG1       0.048367
     30 H62         33.0610    10.9340     2.2940 h1         1 BG1       0.048367
     31 H63         31.9020    12.1250     2.8700 h1         1 BG1       0.048367
     32 H71         31.9440    15.2200     0.4700 h1         1 BG1       0.043033
     33 H72         31.7530    15.6030     2.1920 h1         1 BG1       0.043033
     34 H73         32.7350    14.2130     1.7030 h1         1 BG1       0.043033
     35 HN2         29.8130    14.4860     1.2820 hn         1 BG1       0.479000
     36 C6          32.0600    11.3440     2.1160 c3         1 BG1       0.203100
     37 C2          34.3330     9.8070    -1.5540 c3         1 BG1      -0.078400
     38 N2          30.6230    13.9270     1.5400 n7         1 BG1      -0.899300
     39 O2          30.5050    13.3210    -0.8760 o          1 BG1      -0.554500
     40 O3          29.3560    11.8340     0.8720 o          1 BG1      -0.554500
@<TRIPOS>BOND
     1     1     2 1   
     2     1    16 1   
     3     1    17 1   
     4     2     3 1   
     5     2     5 1   
     6     2    18 1   
     7     3     4 1   
     8     3    19 1   
     9     3    20 1   
    10     4    10 1   
    11     5     6 1   
    12     5    15 1   
    13     7    21 1   
    14     7    22 1   
    15     7    23 1   
    16     7    37 1   
    17     8     9 1   
    18     8    26 1   
    19     8    27 1   
    20     8    37 1   
    21     9    10 1   
    22     9    12 1   
    23     9    28 1   
    24    10    13 2   
    25    11    32 1   
    26    11    33 1   
    27    11    34 1   
    28    11    38 1   
    29    12    14 1   
    30    12    36 1   
    31    14    38 1   
    32    14    39 2   
    33    14    40 2   
    34    24    37 1   
    35    25    37 1   
    36    29    36 1   
    37    30    36 1   
    38    31    36 1   
    39    35    38 1   
@<TRIPOS>SUBSTRUCTURE
     1 BG1         1 TEMP              0 ****  ****    0 ROOT
