@<TRIPOS>MOLECULE
BG2
   33    35     1     0     0
SMALL
abcg2


@<TRIPOS>ATOM
      1 BR           1.2370     2.2640    -0.4320 br         1 BG2      -0.092200
      2 N1          -4.3010    -0.3840     0.3880 ns         1 BG2      -0.458400
      3 C2          -3.5500    -1.5070     0.5870 cc         1 BG2       0.740800
      4 N2          -4.2050    -2.6310     0.9030 nv         1 BG2      -1.041200
      5 N3          -2.2400    -1.5120     0.5150 nd         1 BG2      -0.702100
      6 C4          -1.7230    -0.3120     0.2370 cd         1 BG2       0.177400
      7 C5          -2.3870     0.8790     0.0370 cc         1 BG2       0.083500
      8 C6          -3.8120     0.8940     0.0920 c          1 BG2       0.524500
      9 O6          -4.5720     1.8310    -0.0770 o          1 BG2      -0.511000
     10 N7          -1.4990     1.8920    -0.2130 nc         1 BG2      -0.561000
     11 C8          -0.3410     1.3280    -0.1680 cd         1 BG2       0.458700
     12 N9          -0.3930    -0.0220     0.1110 na         1 BG2      -0.163500
     13 C1           0.6520    -1.0150     0.1710 c5         1 BG2       0.312300
     14 C7           1.3430    -1.3180    -1.1530 c5         1 BG2       0.133300
     15 O2           0.5100    -2.1210    -1.9270 oh         1 BG2      -0.677000
     16 C3           2.6510    -1.9590    -0.6630 c5         1 BG2       0.095300
     17 O3           2.4570    -3.3430    -0.5570 oh         1 BG2      -0.691000
     18 C9           2.8730    -1.2640     0.6980 c5         1 BG2       0.132300
     19 O4           1.6590    -0.5890     1.0330 os         1 BG2      -0.423000
     20 C10          4.0170    -0.2780     0.6550 c3         1 BG2       0.161600
     21 O5           4.1250     0.3550     1.9040 oh         1 BG2      -0.697000
     22 HN2         -5.1970    -2.7080     0.7590 hn         1 BG2       0.502500
     23 HN2A        -3.6840    -3.4920     0.8950 hn         1 BG2       0.502500
     24 H1           0.1600    -1.9290     0.5290 h2         1 BG2       0.115700
     25 H2           1.5990    -0.3860    -1.6710 h1         1 BG2       0.057700
     26 HO2          0.9400    -2.2950    -2.7700 ho         1 BG2       0.514000
     27 H3           3.4740    -1.7250    -1.3510 h1         1 BG2       0.047700
     28 HO3          3.2580    -3.7330    -0.1930 ho         1 BG2       0.508000
     29 H4           3.0710    -2.0240     1.4640 h1         1 BG2       0.075700
     30 H5           4.9250    -0.8430     0.4050 h1         1 BG2       0.022700
     31 H5'A         3.8500     0.4400    -0.1590 h1         1 BG2       0.022700
     32 HO5          4.7600     1.0730     1.8240 ho         1 BG2       0.507000
     33 HN1         -5.3090    -0.4650     0.4450 hn         1 BG2       0.322500
@<TRIPOS>BOND
     1     1    11 1   
     2     2     3 1   
     3     2     8 1   
     4     2    33 1   
     5     3     4 1   
     6     3     5 2   
     7     4    22 1   
     8     4    23 1   
     9     5     6 1   
    10     6     7 2   
    11     6    12 1   
    12     7     8 1   
    13     7    10 1   
    14     8     9 2   
    15    10    11 2   
    16    11    12 1   
    17    12    13 1   
    18    13    14 1   
    19    13    19 1   
    20    13    24 1   
    21    14    15 1   
    22    14    16 1   
    23    14    25 1   
    24    15    26 1   
    25    16    17 1   
    26    16    18 1   
    27    16    27 1   
    28    17    28 1   
    29    18    19 1   
    30    18    20 1   
    31    18    29 1   
    32    20    21 1   
    33    20    30 1   
    34    20    31 1   
    35    21    32 1   
@<TRIPOS>SUBSTRUCTURE
     1 BG2         1 TEMP              0 ****  ****    0 ROOT
