@<TRIPOS>MOLECULE
BG2
   33    35     1     0     0
SMALL
No Charge or Current Charge


@<TRIPOS>ATOM
      1 Br           1.2150     2.3340    -0.3060 br         1 BG2      -0.092200
      2 N1          -4.4280    -0.3800     0.4660 ns         1 BG2      -0.458400
      3 C2          -3.6760    -1.5010     0.5300 cc         1 BG2       0.740800
      4 N2          -4.3340    -2.6290     0.7080 nv         1 BG2      -1.041200
      5 N3          -2.3700    -1.5930     0.4350 nd         1 BG2      -0.702100
      6 C4          -1.7580    -0.3540     0.2430 cd         1 BG2       0.177400
      7 C5          -2.4360     0.8340     0.1650 cc         1 BG2       0.083500
      8 C6          -3.9110     0.8640     0.2860 c          1 BG2       0.524500
      9 O6          -4.6190     1.8610     0.2370 o          1 BG2      -0.511000
     10 N7          -1.5680     1.8820    -0.0240 nc         1 BG2      -0.561000
     11 C8          -0.3620     1.3220    -0.0590 cd         1 BG2       0.458700
     12 N9          -0.4210    -0.0630     0.0990 na         1 BG2      -0.163500
     13 C1           0.6780    -1.0270     0.1090 c5         1 BG2       0.312300
     14 C7           1.4860    -1.2090    -1.2130 c5         1 BG2       0.133300
     15 O2           0.8040    -1.9480    -2.2350 oh         1 BG2      -0.677000
     16 C3           2.6720    -2.0330    -0.6420 c5         1 BG2       0.095300
     17 O3           2.2690    -3.3990    -0.4150 oh         1 BG2      -0.691000
     18 C9           2.9530    -1.2460     0.6910 c5         1 BG2       0.132300
     19 O4           1.6800    -0.6500     1.0780 os         1 BG2      -0.423000
     20 C10          4.0260    -0.1290     0.5300 c3         1 BG2       0.161600
     21 O5           4.3690     0.4550     1.7990 oh         1 BG2      -0.697000
     22 HN2         -5.2610    -2.6790     0.3060 hn         1 BG2       0.502500
     23 HN2A        -3.7620    -3.4530     0.5710 hn         1 BG2       0.502500
     24 H1           0.2390    -1.9890     0.4030 h2         1 BG2       0.115700
     25 H2           1.8270    -0.2400    -1.6030 h1         1 BG2       0.057700
     26 HO2          0.9860    -2.8930    -2.0030 ho         1 BG2       0.514000
     27 H3           3.5380    -2.0020    -1.3180 h1         1 BG2       0.047700
     28 HO3          3.0650    -3.9020    -0.1180 ho         1 BG2       0.508000
     29 H4           3.2850    -1.9290     1.4840 h1         1 BG2       0.075700
     30 H5           4.9210    -0.5710     0.0740 h1         1 BG2       0.022700
     31 H5'A         3.6530     0.6380    -0.1600 h1         1 BG2       0.022700
     32 HO5          5.0140     1.1790     1.6200 ho         1 BG2       0.507000
     33 HN1         -5.4250    -0.4480     0.5830 hn         1 BG2       0.322500
@<TRIPOS>BOND
     1     1    11 1   
     2     2     3 1   
     3     2     8 1   
     4     2    33 1   
     5     3     4 1   
     6     3     5 2   
     7     4    22 1   
     8     4    23 1   
     9     5     6 1   
    10     6     7 2   
    11     6    12 1   
    12     7     8 1   
    13     7    10 1   
    14     8     9 2   
    15    10    11 2   
    16    11    12 1   
    17    12    13 1   
    18    13    14 1   
    19    13    19 1   
    20    13    24 1   
    21    14    15 1   
    22    14    16 1   
    23    14    25 1   
    24    15    26 1   
    25    16    17 1   
    26    16    18 1   
    27    16    27 1   
    28    17    28 1   
    29    18    19 1   
    30    18    20 1   
    31    18    29 1   
    32    20    21 1   
    33    20    30 1   
    34    20    31 1   
    35    21    32 1   
@<TRIPOS>SUBSTRUCTURE
     1 BG2         1 TEMP              0 ****  ****    0 ROOT
