@<TRIPOS>MOLECULE
BG3
   22    22     1     0     0
SMALL
bcc


@<TRIPOS>ATOM
      1 C1           0.9540    -0.2930    -0.3090 c          1 BG3       0.906600
      2 C2           1.3390     0.0280    -1.7740 c5         1 BG3       0.032500
      3 C3           0.2440    -0.3780    -2.7640 c5         1 BG3      -0.047700
      4 C4          -0.6870     0.8430    -2.7300 c5         1 BG3      -0.033400
      5 C5           0.2100     2.0110    -2.2860 c5         1 BG3       0.041300
      6 C6           0.7960    -0.6460    -4.1590 c3         1 BG3      -0.078100
      7 O1           0.9450     0.6510     0.5070 o          1 BG3      -0.859800
      8 N1           1.5200     1.4440    -2.0570 n7         1 BG3      -0.759200
      9 S1           0.3010     3.3450    -3.5080 s6         1 BG3       1.215800
     10 O2          -1.0770     3.8830    -3.5730 o          1 BG3      -0.717867
     11 O3           0.7500     2.7660    -4.7920 o          1 BG3      -0.717867
     12 O4           1.2710     4.3150    -2.9520 o          1 BG3      -0.717867
     13 O5           0.7060    -1.4910    -0.0620 o          1 BG3      -0.859800
     14 H2           2.2690    -0.5140    -1.9910 h1         1 BG3       0.031700
     15 H3          -0.2690    -1.2720    -2.4100 hc         1 BG3       0.042700
     16 H41         -1.1710     1.0150    -3.6920 hc         1 BG3       0.025200
     17 H42         -1.4830     0.7030    -1.9980 hc         1 BG3       0.025200
     18 H5          -0.2080     2.4950    -1.3950 h2         1 BG3       0.054700
     19 H61          1.4980    -1.4830    -4.1490 hc         1 BG3       0.019033
     20 H62         -0.0080    -0.8990    -4.8540 hc         1 BG3       0.019033
     21 H63          1.3080     0.2310    -4.5520 hc         1 BG3       0.019033
     22 HN1          1.9650     1.9030    -1.2750 hn         1 BG3       0.357800
@<TRIPOS>BOND
     1     1     2 1   
     2     1     7 1   
     3     1    13 1   
     4     2     3 1   
     5     2     8 1   
     6     2    14 1   
     7     3     4 1   
     8     3     6 1   
     9     3    15 1   
    10     4     5 1   
    11     4    16 1   
    12     4    17 1   
    13     5     8 1   
    14     5     9 1   
    15     5    18 1   
    16     6    19 1   
    17     6    20 1   
    18     6    21 1   
    19     8    22 1   
    20     9    10 1   
    21     9    11 1   
    22     9    12 1   
@<TRIPOS>SUBSTRUCTURE
     1 BG3         1 TEMP              0 ****  ****    0 ROOT
