@<TRIPOS>MOLECULE
BG3
   22    22     1     0     0
SMALL
No Charge or Current Charge


@<TRIPOS>ATOM
      1 C1           1.8060    -0.4980    -0.6190 c          1 BG3       0.696000
      2 C2           1.5430     0.3710    -1.9240 c5         1 BG3       0.032500
      3 C3           0.3120    -0.2050    -2.7020 c5         1 BG3      -0.047700
      4 C4          -0.1030     1.0280    -3.5480 c5         1 BG3      -0.033400
      5 C5          -0.0650     2.1140    -2.4420 c5         1 BG3      -0.069500
      6 C6           0.6010    -1.4740    -3.5340 c3         1 BG3      -0.078100
      7 O1           2.6910    -1.3440    -0.6360 o          1 BG3      -0.754500
      8 N1           1.2330     1.8360    -1.6940 n7         1 BG3      -0.814400
      9 S1          -0.3750     3.8670    -3.2520 s6         1 BG3       1.326600
     10 O2          -1.7000     3.7610    -3.8870 o          1 BG3      -0.717867
     11 O3           0.7240     4.0630    -4.2140 o          1 BG3      -0.717867
     12 O4          -0.3440     4.8160    -2.1240 o          1 BG3      -0.717867
     13 O5           1.2070    -0.2280     0.4150 o          1 BG3      -0.754500
     14 H2           2.4400     0.3020    -2.5560 h1         1 BG3       0.031700
     15 H3          -0.4940    -0.4680    -2.0050 hc         1 BG3       0.042700
     16 H41          0.6100     1.2280    -4.3570 hc         1 BG3       0.025200
     17 H42         -1.0970     0.9120    -3.9960 hc         1 BG3       0.025200
     18 H5          -0.9230     1.9760    -1.7730 h2         1 BG3       0.054700
     19 H61          0.9010    -2.3090    -2.8890 hc         1 BG3       0.019033
     20 H62         -0.2880    -1.7880    -4.0930 hc         1 BG3       0.019033
     21 H63          1.4080    -1.3010    -4.2570 hc         1 BG3       0.019033
     22 HN1          1.0880     1.9960    -0.6870 hn         1 BG3       0.413000
@<TRIPOS>BOND
     1     1     2 1   
     2     1     7 1   
     3     1    13 1   
     4     2     3 1   
     5     2     8 1   
     6     2    14 1   
     7     3     4 1   
     8     3     6 1   
     9     3    15 1   
    10     4     5 1   
    11     4    16 1   
    12     4    17 1   
    13     5     8 1   
    14     5     9 1   
    15     5    18 1   
    16     6    19 1   
    17     6    20 1   
    18     6    21 1   
    19     8    22 1   
    20     9    10 1   
    21     9    11 1   
    22     9    12 1   
@<TRIPOS>SUBSTRUCTURE
     1 BG3         1 TEMP              0 ****  ****    0 ROOT
