@<TRIPOS>MOLECULE
BG4
   25    25     1     0     0
SMALL
bcc


@<TRIPOS>ATOM
      1 C1          -0.1720     1.0690     0.7350 c          1 BG4       0.919600
      2 C2          -1.5080     0.8750     1.4770 c5         1 BG4       0.047500
      3 C3          -1.3660     1.1280     3.0020 c5         1 BG4      -0.047700
      4 C4          -2.4470     2.1750     3.3090 c5         1 BG4      -0.069400
      5 C5          -2.6580     2.8630     1.9660 c5         1 BG4       0.378700
      6 C6          -1.4940    -0.1360     3.8370 c3         1 BG4      -0.075100
      7 N1          -2.6110     1.7350     1.0780 n7         1 BG4      -0.827200
      8 O1           0.7460     0.3020     1.0690 o          1 BG4      -0.833300
      9 N2          -1.5620     3.8240     1.7490 n3         1 BG4      -0.476100
     10 O2          -1.4820     4.1230     0.3720 oh         1 BG4      -0.515300
     11 C7          -1.8030     5.0760     2.4260 c3         1 BG4       0.144100
     12 O3          -0.0950     1.9480    -0.1650 o          1 BG4      -0.833300
     13 H2          -1.7930    -0.1720     1.3080 h1         1 BG4       0.048700
     14 H3          -0.3880     1.5680     3.2050 hc         1 BG4       0.068700
     15 H41         -3.3820     1.6940     3.6110 hc         1 BG4       0.027200
     16 H42         -2.1590     2.8510     4.1150 hc         1 BG4       0.027200
     17 H5          -3.6350     3.3660     1.8810 h2         1 BG4       0.026700
     18 H61         -1.4160     0.0820     4.9040 hc         1 BG4       0.020367
     19 H62         -2.4560    -0.6240     3.6660 hc         1 BG4       0.020367
     20 H63         -0.7080    -0.8480     3.5850 hc         1 BG4       0.020367
     21 HN1         -2.5860     1.9890     0.1010 hn         1 BG4       0.379800
     22 HO2         -0.9150     3.3770     0.0510 ho         1 BG4       0.488000
     23 H71         -0.9590     5.7500     2.2790 h1         1 BG4       0.020033
     24 H72         -1.9000     4.8990     3.4970 h1         1 BG4       0.020033
     25 H73         -2.7180     5.5840     2.0870 h1         1 BG4       0.020033
@<TRIPOS>BOND
     1     1     2 1   
     2     1     8 1   
     3     1    12 1   
     4     2     3 1   
     5     2     7 1   
     6     2    13 1   
     7     3     4 1   
     8     3     6 1   
     9     3    14 1   
    10     4     5 1   
    11     4    15 1   
    12     4    16 1   
    13     5     7 1   
    14     5     9 1   
    15     5    17 1   
    16     6    18 1   
    17     6    19 1   
    18     6    20 1   
    19     7    21 1   
    20     9    10 1   
    21     9    11 1   
    22    10    22 1   
    23    11    23 1   
    24    11    24 1   
    25    11    25 1   
@<TRIPOS>SUBSTRUCTURE
     1 BG4         1 TEMP              0 ****  ****    0 ROOT
