@<TRIPOS>MOLECULE
BG4
   25    25     1     0     0
SMALL
No Charge or Current Charge


@<TRIPOS>ATOM
      1 C1          -0.2020     0.9990     0.7080 c          1 BG4       0.709000
      2 C2          -1.6090     0.8580     1.4470 c5         1 BG4       0.047500
      3 C3          -1.4350     1.1770     2.9800 c5         1 BG4      -0.047700
      4 C4          -2.6610     2.0950     3.2880 c5         1 BG4      -0.069400
      5 C5          -2.8390     2.8580     1.9450 c5         1 BG4       0.378700
      6 C6          -1.3310    -0.0630     3.8960 c3         1 BG4      -0.075100
      7 N1          -2.7090     1.7820     0.9590 n7         1 BG4      -0.882400
      8 O1           0.6830     0.1900     0.9510 o          1 BG4      -0.728000
      9 N2          -1.6640     3.7710     1.7590 n3         1 BG4      -0.476100
     10 O2          -1.4130     4.0670     0.3210 oh         1 BG4      -0.554300
     11 C7          -1.7050     5.0570     2.4890 c3         1 BG4       0.144100
     12 O3          -0.0550     1.8710    -0.1460 o          1 BG4      -0.728000
     13 H2          -1.9310    -0.1830     1.3050 h1         1 BG4       0.048700
     14 H3          -0.5090     1.7440     3.1410 hc         1 BG4       0.068700
     15 H41         -3.5570     1.5050     3.5150 hc         1 BG4       0.027200
     16 H42         -2.4890     2.7540     4.1460 hc         1 BG4       0.027200
     17 H5          -3.7950     3.3930     1.8620 h2         1 BG4       0.026700
     18 H61         -1.2350     0.2320     4.9470 hc         1 BG4       0.020367
     19 H62         -2.2200    -0.6990     3.8050 hc         1 BG4       0.020367
     20 H63         -0.4560    -0.6710     3.6380 hc         1 BG4       0.020367
     21 HN1         -2.4260     2.2410     0.0880 hn         1 BG4       0.435000
     22 HO2         -0.7670     3.3380     0.0550 ho         1 BG4       0.527000
     23 H71         -0.7770     5.6220     2.3300 h1         1 BG4       0.020033
     24 H72         -1.8170     4.8890     3.5680 h1         1 BG4       0.020033
     25 H73         -2.5490     5.6710     2.1480 h1         1 BG4       0.020033
@<TRIPOS>BOND
     1     1     2 1   
     2     1     8 1   
     3     1    12 1   
     4     2     3 1   
     5     2     7 1   
     6     2    13 1   
     7     3     4 1   
     8     3     6 1   
     9     3    14 1   
    10     4     5 1   
    11     4    15 1   
    12     4    16 1   
    13     5     7 1   
    14     5     9 1   
    15     5    17 1   
    16     6    18 1   
    17     6    19 1   
    18     6    20 1   
    19     7    21 1   
    20     9    10 1   
    21     9    11 1   
    22    10    22 1   
    23    11    23 1   
    24    11    24 1   
    25    11    25 1   
@<TRIPOS>SUBSTRUCTURE
     1 BG4         1 TEMP              0 ****  ****    0 ROOT
