@<TRIPOS>MOLECULE
BG5
   22    22     1     0     0
SMALL
abcg2


@<TRIPOS>ATOM
      1 C1          -0.1940     0.5970     0.7230 c          1 BG5       0.710000
      2 C2          -1.5470     0.7880     1.4320 c5         1 BG5       0.034500
      3 C3          -1.4090     1.1900     2.9140 c5         1 BG5      -0.052700
      4 C4          -2.5870     2.1460     3.1050 c5         1 BG5      -0.088400
      5 C5          -2.6690     2.8560     1.7610 c5         1 BG5       0.357700
      6 C6          -1.4010     0.0240     3.8830 c3         1 BG5      -0.071100
      7 N1          -2.4090     1.7980     0.8140 n7         1 BG5      -0.861400
      8 O1           0.6050    -0.1860     1.2760 o          1 BG5      -0.729500
      9 N2          -1.6550     3.9080     1.7390 n7         1 BG5      -0.592900
     10 O2          -1.7250     4.6340     0.5430 oh         1 BG5      -0.433300
     11 O3          -0.0090     1.2140    -0.3460 o          1 BG5      -0.729500
     12 H2          -2.0560    -0.1880     1.3920 h1         1 BG5       0.042700
     13 H3          -0.4840     1.7600     3.0450 hc         1 BG5       0.068700
     14 H41         -3.5110     1.5850     3.2690 hc         1 BG5       0.027700
     15 H42         -2.4670     2.8290     3.9480 hc         1 BG5       0.027700
     16 H5          -3.6670     3.2900     1.5840 h2         1 BG5       0.013700
     17 H61         -1.3400     0.3680     4.9180 hc         1 BG5       0.023367
     18 H62         -2.3110    -0.5730     3.7860 hc         1 BG5       0.023367
     19 H63         -0.5500    -0.6300     3.6960 hc         1 BG5       0.023367
     20 HN1         -1.9620     2.1470    -0.0260 hn         1 BG5       0.460000
     21 HN2         -1.8530     4.5620     2.4930 hn         1 BG5       0.366000
     22 HO2         -2.6160     5.0080     0.4760 ho         1 BG5       0.381000
@<TRIPOS>BOND
     1     1     2 1   
     2     1     8 1   
     3     1    11 1   
     4     2     3 1   
     5     2     7 1   
     6     2    12 1   
     7     3     4 1   
     8     3     6 1   
     9     3    13 1   
    10     4     5 1   
    11     4    14 1   
    12     4    15 1   
    13     5     7 1   
    14     5     9 1   
    15     5    16 1   
    16     6    17 1   
    17     6    18 1   
    18     6    19 1   
    19     7    20 1   
    20     9    10 1   
    21     9    21 1   
    22    10    22 1   
@<TRIPOS>SUBSTRUCTURE
     1 BG5         1 TEMP              0 ****  ****    0 ROOT
