@<TRIPOS>MOLECULE
BG5
   22    22     1     0     0
SMALL
No Charge or Current Charge


@<TRIPOS>ATOM
      1 C1          -0.2830     0.2080     0.7840 c          1 BG5       0.710000
      2 C2          -1.6140     0.8160     1.3990 c5         1 BG5       0.034500
      3 C3          -1.3580     1.2660     2.8660 c5         1 BG5      -0.052700
      4 C4          -2.6460     2.0980     3.0920 c5         1 BG5      -0.088400
      5 C5          -2.7760     2.8700     1.7470 c5         1 BG5       0.357700
      6 C6          -1.1540     0.1210     3.8830 c3         1 BG5      -0.071100
      7 N1          -2.1520     2.0550     0.7190 n7         1 BG5      -0.861400
      8 O1          -0.2160    -0.9990     0.5870 o          1 BG5      -0.729500
      9 N2          -1.8720     4.0340     1.7810 n7         1 BG5      -0.592900
     10 O2          -1.9060     4.7790     0.4930 oh         1 BG5      -0.433300
     11 O3           0.6130     0.9650     0.4290 o          1 BG5      -0.729500
     12 H2          -2.3820     0.0300     1.3820 h1         1 BG5       0.042700
     13 H3          -0.4680     1.9040     2.9280 hc         1 BG5       0.068700
     14 H41         -3.5170     1.4500     3.2490 hc         1 BG5       0.027700
     15 H42         -2.5780     2.7590     3.9640 hc         1 BG5       0.027700
     16 H5          -3.8100     3.1520     1.5120 h2         1 BG5       0.013700
     17 H61         -1.0610     0.5140     4.9020 hc         1 BG5       0.023367
     18 H62         -1.9980    -0.5790     3.8700 hc         1 BG5       0.023367
     19 H63         -0.2430    -0.4480     3.6620 hc         1 BG5       0.023367
     20 HN1         -1.3510     2.6470     0.4620 hn         1 BG5       0.460000
     21 HN2         -2.1940     4.7000     2.4980 hn         1 BG5       0.366000
     22 HO2         -2.8520     4.7860     0.2150 ho         1 BG5       0.381000
@<TRIPOS>BOND
     1     1     2 1   
     2     1     8 1   
     3     1    11 1   
     4     2     3 1   
     5     2     7 1   
     6     2    12 1   
     7     3     4 1   
     8     3     6 1   
     9     3    13 1   
    10     4     5 1   
    11     4    14 1   
    12     4    15 1   
    13     5     7 1   
    14     5     9 1   
    15     5    16 1   
    16     6    17 1   
    17     6    18 1   
    18     6    19 1   
    19     7    20 1   
    20     9    10 1   
    21     9    21 1   
    22    10    22 1   
@<TRIPOS>SUBSTRUCTURE
     1 BG5         1 TEMP              0 ****  ****    0 ROOT
