@<TRIPOS>MOLECULE
BG7
   85    88     1     0     0
SMALL
abcg2


@<TRIPOS>ATOM
      1 C1          -6.9120     2.3990     0.6960 c6         1 BG7      -0.051700
      2 C2          -6.8810     2.4270    -0.8330 c6         1 BG7      -0.074400
      3 C3          -7.9350     3.3740    -1.3870 c6         1 BG7       0.160800
      4 C5          -9.3380     3.0500     0.5350 c6         1 BG7       0.160800
      5 C6          -8.3370     2.0880     1.1580 c6         1 BG7      -0.074400
      6 C13         -5.9380     1.3840     1.2790 c3         1 BG7      -0.150400
      7 C15         -4.4760     1.7640     1.1290 c          1 BG7       0.609100
      8 C21         -3.8710    -0.5320     1.8670 c6         1 BG7       0.106000
      9 C22         -3.6640    -1.5210     0.7200 c6         1 BG7      -0.034100
     10 C23         -2.3250    -1.2250     0.1450 cc         1 BG7      -0.147300
     11 C24         -1.6060    -0.0710     0.3540 cd         1 BG7      -0.200300
     12 C25         -2.1440     1.0580     1.1780 c6         1 BG7       0.176300
     13 C32         -0.3830    -0.2930    -0.3180 cd         1 BG7       0.311500
     14 C39         -1.8670    -3.3710    -1.0670 c3         1 BG7       0.082600
     15 C41          0.8060     0.5540    -0.4290 ca         1 BG7      -0.081500
     16 C43          2.0320    -0.0070    -0.7970 ca         1 BG7      -0.094000
     17 C44          3.1880     0.7440    -0.9300 ca         1 BG7      -0.061300
     18 C45          3.1200     2.1260    -0.6930 ca         1 BG7      -0.175300
     19 C46          1.9090     2.6960    -0.3240 ca         1 BG7      -0.070000
     20 C47          0.7680     1.9230    -0.1880 ca         1 BG7      -0.103000
     21 C54          4.3170     3.0130    -0.8660 c3         1 BG7       0.357300
     22 C62          4.4550    -0.0010    -1.2820 c3         1 BG7       0.139300
     23 C66          6.5800    -0.2370    -0.0600 c          1 BG7       0.616300
     24 C68          7.1420    -0.5280     1.2740 ce         1 BG7      -0.316200
     25 C70          8.4370    -0.7260     1.5610 c2         1 BG7      -0.018400
     26 C72          9.5660    -0.7010     0.5750 c3         1 BG7      -0.070400
     27 C74          8.8500    -0.9880     2.9760 c3         1 BG7      -0.070400
     28 C78         -1.1810    -4.4310    -0.2160 c3         1 BG7      -0.099400
     29 C80         -1.5780    -5.8260    -0.6810 c3         1 BG7       0.168800
     30 C84         -1.1490    -6.9860     1.3890 c3         1 BG7       0.148600
     31 C86         -1.0590    -8.1540    -0.6820 c3         1 BG7       0.148600
     32 F56          4.0470     4.2920    -0.5880 f          1 BG7      -0.111333
     33 F58          5.3400     2.6610    -0.0770 f          1 BG7      -0.111333
     34 F60          4.7780     2.9900    -2.1280 f          1 BG7      -0.111333
     35 N19         -3.5550     0.8190     1.4420 n          1 BG7      -0.417800
     36 N33         -0.3890    -1.4860    -0.9010 nc         1 BG7      -0.510800
     37 N34         -1.5640    -2.0280    -0.6220 na         1 BG7       0.153800
     38 N4          -9.2530     2.9890    -0.9130 n7         1 BG7      -0.864400
     39 N64          5.2300    -0.2870    -0.0980 ns         1 BG7      -0.509900
     40 N82         -0.8400    -6.8860    -0.0210 n3         1 BG7      -0.710600
     41 O17         -4.1450     2.8850     0.7670 o          1 BG7      -0.598100
     42 O76          7.2500     0.0330    -1.0510 o          1 BG7      -0.608100
     43 H1          -6.6490     3.3960     1.0660 hc         1 BG7       0.067700
     44 H2          -5.8970     2.7280    -1.1960 hc         1 BG7       0.046700
     45 H3          -7.0720     1.4180    -1.2150 hc         1 BG7       0.046700
     46 H4          -7.6710     4.4060    -1.0990 h1         1 BG7       0.030200
     47 H5          -7.9290     3.3410    -2.4780 h1         1 BG7       0.030200
     48 H6         -10.3520     2.7850     0.8420 h1         1 BG7       0.030200
     49 H7          -9.1410     4.0630     0.9260 h1         1 BG7       0.030200
     50 H8          -8.5990     1.0630     0.8750 hc         1 BG7       0.046700
     51 H9          -8.4040     2.1470     2.2480 hc         1 BG7       0.046700
     52 H10         -6.1410     1.2540     2.3490 hc         1 BG7       0.056200
     53 H11         -6.1300     0.4060     0.8250 hc         1 BG7       0.056200
     54 H12         -4.8830    -0.5920     2.2550 h1         1 BG7       0.056700
     55 H13         -3.2070    -0.7930     2.6940 h1         1 BG7       0.056700
     56 H14         -3.7250    -2.5420     1.1020 hc         1 BG7       0.061200
     57 H15         -4.4520    -1.4090    -0.0300 hc         1 BG7       0.061200
     58 H16         -1.5960     1.1490     2.1230 h1         1 BG7       0.070200
     59 H17         -2.0580     2.0140     0.6690 h1         1 BG7       0.070200
     60 H18         -1.5640    -3.4560    -2.1120 h1         1 BG7       0.065200
     61 H19         -2.9500    -3.4940    -1.0390 h1         1 BG7       0.065200
     62 H20          2.0870    -1.0730    -0.9810 ha         1 BG7       0.134000
     63 H21          1.8290     3.7580    -0.1450 ha         1 BG7       0.134000
     64 H22         -0.1540     2.4150     0.0860 ha         1 BG7       0.126000
     65 H23          4.1740    -0.9280    -1.7910 h1         1 BG7       0.069200
     66 H24          5.0830     0.5480    -1.9790 h1         1 BG7       0.069200
     67 H25          6.4280    -0.5830     2.0900 ha         1 BG7       0.172000
     68 H26          9.8990     0.3250     0.4060 hc         1 BG7       0.050367
     69 H27         10.4210    -1.2530     0.9660 hc         1 BG7       0.050367
     70 H28          9.2960    -1.1150    -0.3920 hc         1 BG7       0.050367
     71 H29          9.2990    -1.9800     3.0610 hc         1 BG7       0.050367
     72 H30          9.6200    -0.2760     3.2840 hc         1 BG7       0.050367
     73 H31          8.0200    -0.9220     3.6770 hc         1 BG7       0.050367
     74 H32         -0.0970    -4.3170    -0.2890 hc         1 BG7       0.063700
     75 H33         -1.4560    -4.2750     0.8300 hc         1 BG7       0.063700
     76 H34         -2.6690    -5.9530    -0.5610 h1         1 BG7       0.029700
     77 H35         -1.3780    -5.9020    -1.7540 h1         1 BG7       0.029700
     78 H36         -2.2140    -7.1930     1.5840 h1         1 BG7       0.031867
     79 H37         -0.5670    -7.7920     1.8370 h1         1 BG7       0.031867
     80 H38         -0.8870    -6.0670     1.9150 h1         1 BG7       0.031867
     81 H39         -0.7610    -8.0900    -1.7300 h1         1 BG7       0.031867
     82 H40         -0.4550    -8.9300    -0.2100 h1         1 BG7       0.031867
     83 H41         -2.1090    -8.4870    -0.6520 h1         1 BG7       0.031867
     84 H42         -9.9490     3.6030    -1.3150 hn         1 BG7       0.410000
     85 H44          4.7290    -0.5780     0.7260 hn         1 BG7       0.313500
@<TRIPOS>BOND
     1     1     2 1   
     2     1     5 1   
     3     1     6 1   
     4     1    43 1   
     5     2     3 1   
     6     2    44 1   
     7     2    45 1   
     8     3    38 1   
     9     3    46 1   
    10     3    47 1   
    11     4     5 1   
    12     4    38 1   
    13     4    48 1   
    14     4    49 1   
    15     5    50 1   
    16     5    51 1   
    17     6     7 1   
    18     6    52 1   
    19     6    53 1   
    20     7    35 1   
    21     7    41 2   
    22     8     9 1   
    23     8    35 1   
    24     8    54 1   
    25     8    55 1   
    26     9    10 1   
    27     9    56 1   
    28     9    57 1   
    29    10    11 2   
    30    10    37 1   
    31    11    12 1   
    32    11    13 1   
    33    12    35 1   
    34    12    58 1   
    35    12    59 1   
    36    13    15 1   
    37    13    36 2   
    38    14    28 1   
    39    14    37 1   
    40    14    60 1   
    41    14    61 1   
    42    15    16 ar  
    43    15    20 ar  
    44    16    17 ar  
    45    16    62 1   
    46    17    18 ar  
    47    17    22 1   
    48    18    19 ar  
    49    18    21 1   
    50    19    20 ar  
    51    19    63 1   
    52    20    64 1   
    53    21    32 1   
    54    21    33 1   
    55    21    34 1   
    56    22    39 1   
    57    22    65 1   
    58    22    66 1   
    59    23    24 1   
    60    23    39 1   
    61    23    42 2   
    62    24    25 2   
    63    24    67 1   
    64    25    26 1   
    65    25    27 1   
    66    26    68 1   
    67    26    69 1   
    68    26    70 1   
    69    27    71 1   
    70    27    72 1   
    71    27    73 1   
    72    28    29 1   
    73    28    74 1   
    74    28    75 1   
    75    29    40 1   
    76    29    76 1   
    77    29    77 1   
    78    30    40 1   
    79    30    78 1   
    80    30    79 1   
    81    30    80 1   
    82    31    40 1   
    83    31    81 1   
    84    31    82 1   
    85    31    83 1   
    86    36    37 1   
    87    38    84 1   
    88    39    85 1   
@<TRIPOS>SUBSTRUCTURE
     1 BG7         1 TEMP              0 ****  ****    0 ROOT
