@<TRIPOS>MOLECULE
BG7
   85    88     1     0     0
SMALL
No Charge or Current Charge


@<TRIPOS>ATOM
      1 C1          -5.8800     2.4590     1.6920 c6         1 BG7      -0.051700
      2 C2          -6.5130     3.4850     0.7100 c6         1 BG7      -0.074400
      3 C3          -7.1260     4.6870     1.4710 c6         1 BG7       0.160800
      4 C5          -7.5390     3.2860     3.4610 c6         1 BG7       0.160800
      5 C6          -6.9360     2.0460     2.7540 c6         1 BG7      -0.074400
      6 C13         -5.3000     1.2100     0.9550 c3         1 BG7      -0.150400
      7 C15         -4.0080     1.4020     0.1250 c          1 BG7       0.609100
      8 C21         -4.0000    -1.1020    -0.3880 c6         1 BG7       0.106000
      9 C22         -3.6130    -2.1450    -1.4690 c6         1 BG7      -0.034100
     10 C23         -2.1590    -1.9960    -1.7660 cc         1 BG7      -0.147300
     11 C24         -1.5140    -0.8140    -1.7110 cd         1 BG7      -0.200300
     12 C25         -2.1980     0.4850    -1.3560 c6         1 BG7       0.176300
     13 C32         -0.1490    -1.0640    -1.9970 cd         1 BG7       0.311500
     14 C39         -1.3450    -4.3810    -2.2060 c3         1 BG7       0.082600
     15 C41          0.9530    -0.0790    -2.0280 ca         1 BG7      -0.081500
     16 C43          2.2470    -0.4430    -1.6050 ca         1 BG7      -0.094000
     17 C44          3.3250     0.4640    -1.6600 ca         1 BG7      -0.061300
     18 C45          3.1150     1.7790    -2.1650 ca         1 BG7      -0.175300
     19 C46          1.8220     2.1240    -2.6240 ca         1 BG7      -0.070000
     20 C47          0.7620     1.2070    -2.5640 ca         1 BG7      -0.103000
     21 C54          4.2550     2.8160    -2.2460 c3         1 BG7       0.357300
     22 C62          4.6820    -0.0270    -1.1550 c3         1 BG7       0.139300
     23 C66          5.9830    -0.0360     0.9850 c          1 BG7       0.616300
     24 C68          5.8960     0.3590     2.4190 ce         1 BG7      -0.316200
     25 C70          6.9320     0.6610     3.2420 c2         1 BG7      -0.018400
     26 C72          8.4040     0.6090     2.8640 c3         1 BG7      -0.070400
     27 C74          6.7220     1.0840     4.6840 c3         1 BG7      -0.070400
     28 C78         -1.2690    -5.1300    -0.8580 c3         1 BG7      -0.099400
     29 C80         -1.4740    -6.6520    -1.0160 c3         1 BG7       0.168800
     30 C84         -2.2140    -7.0990     1.3170 c3         1 BG7       0.148600
     31 C86         -1.2370    -8.8950    -0.0390 c3         1 BG7       0.148600
     32 F56          3.8290     4.0420    -2.6300 f          1 BG7      -0.111333
     33 F58          4.8740     2.9910    -1.0570 f          1 BG7      -0.111333
     34 F60          5.2020     2.4470    -3.1390 f          1 BG7      -0.111333
     35 N19         -3.4830     0.3010    -0.5950 n          1 BG7      -0.417800
     36 N33          0.0790    -2.3540    -2.2020 nc         1 BG7      -0.510800
     37 N34         -1.1720    -2.9260    -2.0640 na         1 BG7       0.153800
     38 N4          -8.1140     4.2380     2.4810 n7         1 BG7      -0.864400
     39 N64          4.8380     0.2210     0.2770 ns         1 BG7      -0.509900
     40 N82         -1.2690    -7.4380     0.2250 n3         1 BG7      -0.710600
     41 O17         -3.4500     2.4910     0.0740 o          1 BG7      -0.598100
     42 O76          6.9840    -0.4890     0.4530 o          1 BG7      -0.608100
     43 H1          -5.0410     2.9390     2.2180 hc         1 BG7       0.067700
     44 H2          -5.7620     3.8540    -0.0010 hc         1 BG7       0.046700
     45 H3          -7.2940     2.9970     0.1110 hc         1 BG7       0.046700
     46 H4          -6.3240     5.2510     1.9700 h1         1 BG7       0.030200
     47 H5          -7.6150     5.3650     0.7560 h1         1 BG7       0.030200
     48 H6          -8.3210     2.9650     4.1640 h1         1 BG7       0.030200
     49 H7          -6.7550     3.7920     4.0440 h1         1 BG7       0.030200
     50 H8          -7.7410     1.4700     2.2780 hc         1 BG7       0.046700
     51 H9          -6.4800     1.3860     3.5040 hc         1 BG7       0.046700
     52 H10         -5.1000     0.3910     1.6550 hc         1 BG7       0.056200
     53 H11         -6.0520     0.7430     0.3100 hc         1 BG7       0.056200
     54 H12         -5.0950    -1.0990    -0.3200 h1         1 BG7       0.056700
     55 H13         -3.6220    -1.4570     0.5820 h1         1 BG7       0.056700
     56 H14         -3.8610    -3.1570    -1.1200 hc         1 BG7       0.061200
     57 H15         -4.2050    -1.9680    -2.3770 hc         1 BG7       0.061200
     58 H16         -1.5070     1.0960    -0.7570 h1         1 BG7       0.070200
     59 H17         -2.4170     1.0480    -2.2740 h1         1 BG7       0.070200
     60 H18         -0.5700    -4.7630    -2.8820 h1         1 BG7       0.065200
     61 H19         -2.3190    -4.5680    -2.6750 h1         1 BG7       0.065200
     62 H20          2.4160    -1.4430    -1.2130 ha         1 BG7       0.134000
     63 H21          1.6240     3.1080    -3.0420 ha         1 BG7       0.134000
     64 H22         -0.2080     1.5020    -2.9540 ha         1 BG7       0.126000
     65 H23          4.7710    -1.1070    -1.3340 h1         1 BG7       0.069200
     66 H24          5.5040     0.4560    -1.6980 h1         1 BG7       0.069200
     67 H25          4.8810     0.4880     2.7880 ha         1 BG7       0.172000
     68 H26          8.5820     1.0680     1.8840 hc         1 BG7       0.050367
     69 H27          9.0350     1.1460     3.5820 hc         1 BG7       0.050367
     70 H28          8.7610    -0.4270     2.8220 hc         1 BG7       0.050367
     71 H29          7.2440     0.4100     5.3740 hc         1 BG7       0.050367
     72 H30          7.0980     2.1000     4.8570 hc         1 BG7       0.050367
     73 H31          5.6600     1.0770     4.9600 hc         1 BG7       0.050367
     74 H32         -0.2900    -4.9450    -0.3990 hc         1 BG7       0.063700
     75 H33         -2.0290    -4.7190    -0.1850 hc         1 BG7       0.063700
     76 H34         -2.4840    -6.8320    -1.4100 h1         1 BG7       0.029700
     77 H35         -0.7670    -7.0020    -1.7810 h1         1 BG7       0.029700
     78 H36         -3.2530    -7.2680     1.0030 h1         1 BG7       0.031867
     79 H37         -2.0190    -7.7180     2.2030 h1         1 BG7       0.031867
     80 H38         -2.1100    -6.0500     1.6230 h1         1 BG7       0.031867
     81 H39         -0.4700    -9.1380    -0.7870 h1         1 BG7       0.031867
     82 H40         -1.0000    -9.4520     0.8770 h1         1 BG7       0.031867
     83 H41         -2.2080    -9.2460    -0.4140 h1         1 BG7       0.031867
     84 H42         -8.4680     5.0600     2.9870 hn         1 BG7       0.410000
     85 H44          4.0630     0.6290     0.7830 hn         1 BG7       0.313500
@<TRIPOS>BOND
     1     1     2 1   
     2     1     5 1   
     3     1     6 1   
     4     1    43 1   
     5     2     3 1   
     6     2    44 1   
     7     2    45 1   
     8     3    38 1   
     9     3    46 1   
    10     3    47 1   
    11     4     5 1   
    12     4    38 1   
    13     4    48 1   
    14     4    49 1   
    15     5    50 1   
    16     5    51 1   
    17     6     7 1   
    18     6    52 1   
    19     6    53 1   
    20     7    35 1   
    21     7    41 2   
    22     8     9 1   
    23     8    35 1   
    24     8    54 1   
    25     8    55 1   
    26     9    10 1   
    27     9    56 1   
    28     9    57 1   
    29    10    11 2   
    30    10    37 1   
    31    11    12 1   
    32    11    13 1   
    33    12    35 1   
    34    12    58 1   
    35    12    59 1   
    36    13    15 1   
    37    13    36 2   
    38    14    28 1   
    39    14    37 1   
    40    14    60 1   
    41    14    61 1   
    42    15    16 ar  
    43    15    20 ar  
    44    16    17 ar  
    45    16    62 1   
    46    17    18 ar  
    47    17    22 1   
    48    18    19 ar  
    49    18    21 1   
    50    19    20 ar  
    51    19    63 1   
    52    20    64 1   
    53    21    32 1   
    54    21    33 1   
    55    21    34 1   
    56    22    39 1   
    57    22    65 1   
    58    22    66 1   
    59    23    24 1   
    60    23    39 1   
    61    23    42 2   
    62    24    25 2   
    63    24    67 1   
    64    25    26 1   
    65    25    27 1   
    66    26    68 1   
    67    26    69 1   
    68    26    70 1   
    69    27    71 1   
    70    27    72 1   
    71    27    73 1   
    72    28    29 1   
    73    28    74 1   
    74    28    75 1   
    75    29    40 1   
    76    29    76 1   
    77    29    77 1   
    78    30    40 1   
    79    30    78 1   
    80    30    79 1   
    81    30    80 1   
    82    31    40 1   
    83    31    81 1   
    84    31    82 1   
    85    31    83 1   
    86    36    37 1   
    87    38    84 1   
    88    39    85 1   
@<TRIPOS>SUBSTRUCTURE
     1 BG7         1 TEMP              0 ****  ****    0 ROOT
