@<TRIPOS>MOLECULE
BG8
   37    38     1     0     0
SMALL
No Charge or Current Charge


@<TRIPOS>ATOM
      1 C01         -1.3860    -1.3310     0.0950 c6         1 BG8       0.163300
      2 C02         -0.5880    -0.0160     0.3420 c6         1 BG8       0.085700
      3 C03         -1.2460     1.1050    -0.5290 c6         1 BG8       0.383300
      4 O04         -2.6300     1.2450    -0.1970 os         1 BG8      -0.468000
      5 C05         -3.4290     0.0660    -0.4740 c6         1 BG8       0.154300
      6 C06         -2.9040    -1.1290     0.3840 c6         1 BG8       0.097300
      7 N07          0.8550    -0.2030     0.0410 ns         1 BG8      -0.489900
      8 O08         -3.6180    -2.3580     0.1120 oh         1 BG8      -0.724000
      9 O09         -0.8850    -2.4100     0.8990 oh         1 BG8      -0.641000
     10 C10         -4.9280     0.4140    -0.1890 c3         1 BG8       0.170600
     11 O11         -0.6910     2.3780    -0.2740 oh         1 BG8      -0.618000
     12 O12         -5.3990     1.5580    -0.9300 oh         1 BG8      -0.706000
     13 C13          1.8990     0.4310     0.6800 c          1 BG8       0.626700
     14 O15          1.7020     1.1910     1.6190 o          1 BG8      -0.586100
     15 C14          4.4100     0.7390     0.7890 ca         1 BG8      -0.073500
     16 C16          3.2950     0.1260     0.1690 ca         1 BG8      -0.146600
     17 C17          3.5280    -0.7560    -0.9160 ca         1 BG8      -0.073500
     18 C18          4.8380    -1.0130    -1.3600 ca         1 BG8      -0.120000
     19 C19          5.9320    -0.3970    -0.7330 ca         1 BG8      -0.091000
     20 C20          5.7160     0.4780     0.3410 ca         1 BG8      -0.120000
     21 H1          -1.2790    -1.5960    -0.9680 h1         1 BG8       0.035700
     22 H2          -0.6990     0.2650     1.3990 h1         1 BG8       0.121700
     23 H3          -1.1460     0.8650    -1.5970 h2         1 BG8       0.011700
     24 H4          -3.3340    -0.1820    -1.5420 h1         1 BG8       0.057700
     25 H5          -3.0150    -0.8580     1.4460 h1         1 BG8       0.062700
     26 H6           1.1050    -0.8480    -0.6950 hn         1 BG8       0.311500
     27 H7          -4.4520    -2.3470     0.6390 ho         1 BG8       0.513000
     28 H8          -1.5960    -3.0910     0.8660 ho         1 BG8       0.457000
     29 H9          -5.5400    -0.4630    -0.4380 h1         1 BG8       0.026700
     30 H10         -5.0390     0.5950     0.8890 h1         1 BG8       0.026700
     31 H11         -1.4780     2.9580    -0.2250 ho         1 BG8       0.459000
     32 H12         -6.3200     1.7380    -0.6260 ho         1 BG8       0.506000
     33 H14          2.7090    -1.2520    -1.4290 ha         1 BG8       0.121500
     34 H15          5.0040    -1.6920    -2.1940 ha         1 BG8       0.115500
     35 H16          6.9430    -0.5980    -1.0800 ha         1 BG8       0.114000
     36 H17          6.5620     0.9570     0.8290 ha         1 BG8       0.115500
     37 H13          4.2670     1.4210     1.6240 ha         1 BG8       0.121500
@<TRIPOS>BOND
     1     1     2 1   
     2     1     6 1   
     3     1     9 1   
     4     1    21 1   
     5     2     3 1   
     6     2     7 1   
     7     2    22 1   
     8     3     4 1   
     9     3    11 1   
    10     3    23 1   
    11     4     5 1   
    12     5     6 1   
    13     5    10 1   
    14     5    24 1   
    15     6     8 1   
    16     6    25 1   
    17     7    13 1   
    18     7    26 1   
    19     8    27 1   
    20     9    28 1   
    21    10    12 1   
    22    10    29 1   
    23    10    30 1   
    24    11    31 1   
    25    12    32 1   
    26    13    14 2   
    27    13    16 1   
    28    15    16 ar  
    29    15    20 ar  
    30    15    37 1   
    31    16    17 ar  
    32    17    18 ar  
    33    17    33 1   
    34    18    19 ar  
    35    18    34 1   
    36    19    20 ar  
    37    19    35 1   
    38    20    36 1   
@<TRIPOS>SUBSTRUCTURE
     1 BG8         1 TEMP              0 ****  ****    0 ROOT
