@<TRIPOS>MOLECULE
BG8
   37    38     1     0     0
SMALL
bcc


@<TRIPOS>ATOM
      1 C01         -1.3730    -1.2750     0.3740 c6         1 BG8       0.140100
      2 C02         -0.6080     0.0430     0.3900 c6         1 BG8       0.085700
      3 C03         -1.2510     1.0260    -0.5930 c6         1 BG8       0.336900
      4 O04         -2.6110     1.1900    -0.2810 os         1 BG8      -0.421600
      5 C05         -3.3660     0.0060    -0.4360 c6         1 BG8       0.131100
      6 C06         -2.8680    -1.0370     0.5700 c6         1 BG8       0.074100
      7 N07          0.7770    -0.1750     0.0590 ns         1 BG8      -0.556900
      8 O08         -3.5050    -2.2830     0.4010 oh         1 BG8      -0.601800
      9 O09         -0.8390    -2.1010     1.3740 oh         1 BG8      -0.578800
     10 C10         -4.8230     0.3510    -0.2230 c3         1 BG8       0.147400
     11 O11         -0.6210     2.2420    -0.4690 oh         1 BG8      -0.555800
     12 O12         -5.2310     1.2480    -1.2270 oh         1 BG8      -0.583800
     13 C13          1.8070     0.3730     0.7270 c          1 BG8       0.693700
     14 O15          1.6740     1.0270     1.7520 o          1 BG8      -0.586100
     15 C14          4.2600     0.1300     1.0090 ca         1 BG8      -0.091500
     16 C16          3.1630     0.1150     0.1500 ca         1 BG8      -0.146600
     17 C17          3.3690    -0.0980    -1.2120 ca         1 BG8      -0.091500
     18 C18          4.6490    -0.3090    -1.7040 ca         1 BG8      -0.138000
     19 C19          5.7340    -0.3130    -0.8400 ca         1 BG8      -0.109000
     20 C20          5.5370    -0.0930     0.5180 ca         1 BG8      -0.138000
     21 H1          -1.2450    -1.7320    -0.6220 h1         1 BG8       0.035700
     22 H2          -0.6580     0.4770     1.3920 h1         1 BG8       0.121700
     23 H3          -1.1610     0.6230    -1.6180 h2         1 BG8       0.011700
     24 H4          -3.2400    -0.3970    -1.4550 h1         1 BG8       0.057700
     25 H5          -3.0290    -0.6470     1.5860 h1         1 BG8       0.062700
     26 H6           0.9710    -0.7780    -0.7250 hn         1 BG8       0.311500
     27 H7          -4.2900    -2.3160     0.9540 ho         1 BG8       0.414000
     28 H8          -1.3210    -2.9350     1.3560 ho         1 BG8       0.418000
     29 H9          -5.4070    -0.5760    -0.2520 h1         1 BG8       0.026700
     30 H10         -4.9450     0.7780     0.7830 h1         1 BG8       0.026700
     31 H11         -0.7890     2.7720    -1.2560 ho         1 BG8       0.420000
     32 H12         -6.1570     1.4590    -1.0790 ho         1 BG8       0.407000
     33 H14          2.5400    -0.0750    -1.9090 ha         1 BG8       0.139500
     34 H15          4.7970    -0.4630    -2.7650 ha         1 BG8       0.133500
     35 H16          6.7320    -0.4830    -1.2220 ha         1 BG8       0.132000
     36 H17          6.3800    -0.0910     1.1960 ha         1 BG8       0.133500
     37 H13          4.1130     0.3050     2.0660 ha         1 BG8       0.139500
@<TRIPOS>BOND
     1     1     2 1   
     2     1     6 1   
     3     1     9 1   
     4     1    21 1   
     5     2     3 1   
     6     2     7 1   
     7     2    22 1   
     8     3     4 1   
     9     3    11 1   
    10     3    23 1   
    11     4     5 1   
    12     5     6 1   
    13     5    10 1   
    14     5    24 1   
    15     6     8 1   
    16     6    25 1   
    17     7    13 1   
    18     7    26 1   
    19     8    27 1   
    20     9    28 1   
    21    10    12 1   
    22    10    29 1   
    23    10    30 1   
    24    11    31 1   
    25    12    32 1   
    26    13    14 2   
    27    13    16 1   
    28    15    16 ar  
    29    15    20 ar  
    30    15    37 1   
    31    16    17 ar  
    32    17    18 ar  
    33    17    33 1   
    34    18    19 ar  
    35    18    34 1   
    36    19    20 ar  
    37    19    35 1   
    38    20    36 1   
@<TRIPOS>SUBSTRUCTURE
     1 BG8         1 TEMP              0 ****  ****    0 ROOT
