@<TRIPOS>MOLECULE
BG9
   24    24     1     0     0
SMALL
No Charge or Current Charge


@<TRIPOS>ATOM
      1 C1           0.6950     3.5940     0.0710 ca         1 BG9      -0.149000
      2 C2           1.3950     2.3790     0.1380 ca         1 BG9      -0.124500
      3 C3           0.7090     1.1480     0.2150 ca         1 BG9      -0.014800
      4 C4          -0.7150     1.1480     0.2240 ca         1 BG9      -0.014800
      5 C5          -1.4030     2.3780     0.1550 ca         1 BG9      -0.124500
      6 C6          -0.7050     3.5930     0.0800 ca         1 BG9      -0.149000
      7 C7          -1.5180    -0.1130     0.2870 ce         1 BG9      -0.208700
      8 C8          -2.7430    -0.3560    -0.2750 cf         1 BG9      -0.253700
      9 C9          -3.5070    -1.6340    -0.1700 c          1 BG9       0.698700
     10 C10          1.5140    -0.1120     0.2690 ce         1 BG9      -0.208700
     11 C11          2.7320    -0.3540    -0.3080 cf         1 BG9      -0.253700
     12 C12          3.4980    -1.6310    -0.2130 c          1 BG9       0.698700
     13 O1          -3.0290    -2.5580     0.4700 o          1 BG9      -0.736000
     14 O2           3.0290    -2.5560     0.4330 o          1 BG9      -0.736000
     15 H1           1.2390     4.5330     0.0150 ha         1 BG9       0.077000
     16 H2           2.4820     2.3990     0.1380 ha         1 BG9       0.103000
     17 H3          -2.4890     2.3970     0.1680 ha         1 BG9       0.103000
     18 H4          -1.2500     4.5330     0.0310 ha         1 BG9       0.077000
     19 H5          -1.0660    -0.9220     0.8590 ha         1 BG9       0.210000
     20 H6          -3.2210     0.4280    -0.8580 ha         1 BG9       0.133000
     21 H9           1.0690    -0.9210     0.8470 ha         1 BG9       0.210000
     22 H10          3.2020     0.4300    -0.8980 ha         1 BG9       0.133000
     23 O3          -4.5870    -1.6910    -0.7350 o          1 BG9      -0.736000
     24 O4           4.5700    -1.6880    -0.7910 o          1 BG9      -0.736000
@<TRIPOS>BOND
     1     1     2 ar  
     2     1     6 ar  
     3     1    15 1   
     4     2     3 ar  
     5     2    16 1   
     6     3     4 ar  
     7     3    10 1   
     8     4     5 ar  
     9     4     7 1   
    10     5     6 ar  
    11     5    17 1   
    12     6    18 1   
    13     7     8 2   
    14     7    19 1   
    15     8     9 1   
    16     8    20 1   
    17     9    13 1   
    18     9    23 1   
    19    10    11 2   
    20    10    21 1   
    21    11    12 1   
    22    11    22 1   
    23    12    14 1   
    24    12    24 1   
@<TRIPOS>SUBSTRUCTURE
     1 BG9         1 TEMP              0 ****  ****    0 ROOT
