@<TRIPOS>MOLECULE
BG9
   24    24     1     0     0
SMALL
abcg2


@<TRIPOS>ATOM
      1 C1           0.6900     3.5540     0.0500 ca         1 BG9      -0.149000
      2 C2           1.3730     2.3530     0.1150 ca         1 BG9      -0.124500
      3 C3           0.7030     1.1270     0.1770 ca         1 BG9      -0.014800
      4 C4          -0.7090     1.1260     0.1870 ca         1 BG9      -0.014800
      5 C5          -1.3820     2.3520     0.1340 ca         1 BG9      -0.124500
      6 C6          -0.7010     3.5530     0.0600 ca         1 BG9      -0.149000
      7 C7          -1.4750    -0.1250     0.2420 ce         1 BG9      -0.208700
      8 C8          -2.7070    -0.3020    -0.2390 cf         1 BG9      -0.253700
      9 C9          -3.4610    -1.6070    -0.1240 c          1 BG9       0.698700
     10 C10          1.4690    -0.1240     0.2210 ce         1 BG9      -0.208700
     11 C11          2.6990    -0.2990    -0.2680 cf         1 BG9      -0.253700
     12 C12          3.4530    -1.6060    -0.1670 c          1 BG9       0.698700
     13 O1          -2.8970    -2.5580     0.4550 o          1 BG9      -0.736000
     14 O2           2.8970    -2.5570     0.4180 o          1 BG9      -0.736000
     15 H1           1.2380     4.4860     0.0100 ha         1 BG9       0.077000
     16 H2           2.4550     2.3670     0.1360 ha         1 BG9       0.103000
     17 H3          -2.4630     2.3640     0.1710 ha         1 BG9       0.103000
     18 H4          -1.2500     4.4840     0.0270 ha         1 BG9       0.077000
     19 H5          -1.0030    -0.9810     0.7120 ha         1 BG9       0.210000
     20 H6          -3.2160     0.5080    -0.7540 ha         1 BG9       0.133000
     21 H9           0.9990    -0.9830     0.6860 ha         1 BG9       0.210000
     22 H10          3.2070     0.5130    -0.7800 ha         1 BG9       0.133000
     23 O3          -4.6040    -1.6110    -0.6280 o          1 BG9      -0.736000
     24 O4           4.5870    -1.6100    -0.6890 o          1 BG9      -0.736000
@<TRIPOS>BOND
     1     1     2 ar  
     2     1     6 ar  
     3     1    15 1   
     4     2     3 ar  
     5     2    16 1   
     6     3     4 ar  
     7     3    10 1   
     8     4     5 ar  
     9     4     7 1   
    10     5     6 ar  
    11     5    17 1   
    12     6    18 1   
    13     7     8 2   
    14     7    19 1   
    15     8     9 1   
    16     8    20 1   
    17     9    13 1   
    18     9    23 1   
    19    10    11 2   
    20    10    21 1   
    21    11    12 1   
    22    11    22 1   
    23    12    14 1   
    24    12    24 1   
@<TRIPOS>SUBSTRUCTURE
     1 BG9         1 TEMP              0 ****  ****    0 ROOT
