@<TRIPOS>MOLECULE
BGA
   95    97     1     0     0
SMALL
bcc


@<TRIPOS>ATOM
      1 N           -4.3740    -0.6050    -1.9070 ns         1 BGA      -0.543900
      2 C1           1.0020    -1.3650     0.6830 c6         1 BGA       0.351900
      3 O1           2.1220    -1.0120    -0.0300 os         1 BGA      -0.395600
      4 C2          -0.2190    -0.6660     0.0790 c6         1 BGA       0.130100
      5 O2          -0.0990     0.7260     0.2730 os         1 BGA      -0.415600
      6 C3          -1.4890    -1.1740     0.7630 c6         1 BGA       0.142100
      7 O3          -2.5600    -0.5640     0.0880 os         1 BGA      -0.436600
      8 C4          -1.5570    -2.7030     0.7490 c6         1 BGA       0.083100
      9 O4          -1.7750    -3.1350    -0.5720 oh         1 BGA      -0.579800
     10 C5          -0.2520    -3.2450     1.3310 c6         1 BGA       0.132100
     11 O5           0.8460    -2.7570     0.5950 os         1 BGA      -0.418600
     12 C6          -0.2090    -4.7570     1.3170 c3         1 BGA       0.144400
     13 O6           0.9260    -5.1880     2.0290 oh         1 BGA      -0.587800
     14 CAA         -0.3540     1.5290    -0.8410 c6         1 BGA       0.341900
     15 CAB         -0.6010     2.9620    -0.3630 c6         1 BGA       0.091100
     16 CAC          0.6920     3.5690     0.1790 c6         1 BGA       0.141100
     17 CAD          1.7770     3.5010    -0.8840 c6         1 BGA       0.124100
     18 CAE          1.9310     2.0440    -1.3210 c6         1 BGA       0.113100
     19 CAF          2.9280     1.8640    -2.4470 c3         1 BGA      -0.091100
     20 OAG         -1.6020     2.9940     0.6310 oh         1 BGA      -0.591800
     21 OAH          0.5140     4.9040     0.5780 oh         1 BGA      -0.582800
     22 OAI          1.4190     4.3590    -1.9420 oh         1 BGA      -0.580800
     23 OAJ          0.6910     1.5060    -1.7690 os         1 BGA      -0.417600
     24 CAW          3.3550    -1.4030     0.5540 c3         1 BGA       0.142400
     25 CAX          4.4840    -0.6740    -0.1440 c3         1 BGA      -0.082400
     26 CAY          5.8520    -1.1270     0.3510 c3         1 BGA      -0.074400
     27 CAZ          6.9950    -0.4010    -0.3460 c3         1 BGA      -0.074400
     28 CBA          8.3720    -0.8530     0.1220 c3         1 BGA      -0.074400
     29 CBB          9.5120    -0.1280    -0.5820 c3         1 BGA      -0.075400
     30 CBC         -3.8510    -2.0910    -3.7290 c3         1 BGA      -0.179100
     31 CBD         -4.5910    -1.8200    -2.4440 c          1 BGA       0.674100
     32 OBE         -5.3210    -2.6550    -1.9260 o          1 BGA      -0.619100
     33 CBG         -4.7860    -0.2500    -0.5710 c6         1 BGA       0.103700
     34 CBH         -4.7930     1.2650    -0.3960 c6         1 BGA       0.148100
     35 OBI         -5.7140     1.8030    -1.3060 oh         1 BGA      -0.565800
     36 CBJ         -5.1180     1.6170     1.0570 c6         1 BGA       0.088100
     37 OBK         -6.4490     1.2400     1.3180 oh         1 BGA      -0.570800
     38 CBL         -4.1160     0.9120     1.9730 c6         1 BGA       0.104100
     39 CBM         -4.3910     1.1710     3.4370 c3         1 BGA       0.146400
     40 OBN         -3.3200     0.6640     4.1970 oh         1 BGA      -0.583800
     41 OBO         -4.1600    -0.4920     1.7660 os         1 BGA      -0.403600
     42 CBP         -3.8570    -0.8970     0.4680 c6         1 BGA       0.314900
     43 HN          -3.6680    -0.0270    -2.3360 hn         1 BGA       0.313500
     44 H1           1.1060    -1.0750     1.7480 h2         1 BGA       0.029700
     45 H2          -0.2600    -0.9190    -0.9880 h1         1 BGA       0.092700
     46 H3          -1.4660    -0.8590     1.8170 h1         1 BGA       0.069700
     47 H4          -2.3660    -3.0330     1.4140 h1         1 BGA       0.049700
     48 HO4         -2.3240    -3.9240    -0.5590 ho         1 BGA       0.408000
     49 H5          -0.1890    -2.9070     2.3790 h1         1 BGA       0.053700
     50 H6          -1.1390    -5.1240     1.7730 h1         1 BGA       0.029700
     51 H6A         -0.1950    -5.1130     0.2800 h1         1 BGA       0.029700
     52 HO6          0.9810    -6.1440     1.9510 ho         1 BGA       0.406000
     53 HAA         -1.2310     1.1620    -1.3860 h2         1 BGA       0.076700
     54 HAB         -0.9160     3.5340    -1.2420 h1         1 BGA       0.071700
     55 HAC          1.0360     2.9570     1.0260 h1         1 BGA       0.058700
     56 HAD          2.7320     3.8110    -0.4330 h1         1 BGA       0.046700
     57 HAE          2.2890     1.4810    -0.4540 h1         1 BGA       0.065700
     58 HAF          3.9000     2.2640    -2.1560 hc         1 BGA       0.045700
     59 HAFA         3.0650     0.8070    -2.6740 hc         1 BGA       0.045700
     60 HAFB         2.6100     2.3660    -3.3630 hc         1 BGA       0.045700
     61 HOAG        -2.2930     3.6000     0.3560 ho         1 BGA       0.399000
     62 HOAH        -0.1530     4.9120     1.2720 ho         1 BGA       0.408000
     63 HOAI         2.1770     4.4580    -2.5260 ho         1 BGA       0.405000
     64 HAW          3.3550    -1.1680     1.6270 h1         1 BGA       0.035200
     65 HAWA         3.4980    -2.4860     0.4630 h1         1 BGA       0.035200
     66 HAX          4.4120    -0.8440    -1.2220 hc         1 BGA       0.047700
     67 HAXA         4.3780     0.4040     0.0090 hc         1 BGA       0.047700
     68 HAY          5.9260    -0.9670     1.4320 hc         1 BGA       0.040700
     69 HAYA         5.9580    -2.2060     0.1950 hc         1 BGA       0.040700
     70 HAZ          6.9120    -0.5520    -1.4280 hc         1 BGA       0.037200
     71 HAZA         6.8920     0.6780    -0.1840 hc         1 BGA       0.037200
     72 HBA          8.4570    -0.6990     1.2040 hc         1 BGA       0.038200
     73 HBAA         8.4730    -1.9320    -0.0380 hc         1 BGA       0.038200
     74 C27         10.8930    -0.5790    -0.1220 c3         1 BGA      -0.074400
     75 HBB          9.4240    -0.2800    -1.6640 hc         1 BGA       0.036700
     76 HBBA         9.4110     0.9510    -0.4210 hc         1 BGA       0.036700
     77 HBC         -2.9720    -2.6950    -3.5010 hc         1 BGA       0.061700
     78 HBCA        -4.4780    -2.6620    -4.4110 hc         1 BGA       0.061700
     79 HBCB        -3.5140    -1.1860    -4.2330 hc         1 BGA       0.061700
     80 HBG         -5.7940    -0.6340    -0.4030 h1         1 BGA       0.120700
     81 HBH         -3.7800     1.6470    -0.5910 h1         1 BGA       0.040700
     82 HOBI        -5.6250     2.7610    -1.2980 ho         1 BGA       0.399000
     83 HBJ         -4.9840     2.7020     1.1840 h1         1 BGA       0.027700
     84 HOBK        -6.7660     1.7240     2.0850 ho         1 BGA       0.401000
     85 HBL         -3.1190     1.3050     1.7360 h1         1 BGA       0.085700
     86 HBM         -4.5080     2.2550     3.5710 h1         1 BGA       0.023700
     87 HBMA        -5.3430     0.7060     3.7250 h1         1 BGA       0.023700
     88 HOBN        -3.5400     0.7700     5.1270 ho         1 BGA       0.405000
     89 HBP         -4.0150    -1.9800     0.4620 h2         1 BGA       0.087700
     90 C28         12.0210     0.1520    -0.8350 c3         1 BGA      -0.088100
     91 H47         10.9810    -0.4250     0.9590 hc         1 BGA       0.036700
     92 H48         10.9930    -1.6570    -0.2820 hc         1 BGA       0.036700
     93 H49         11.9760    -0.0110    -1.9140 hc         1 BGA       0.031367
     94 H50         11.9640     1.2280    -0.6640 hc         1 BGA       0.031367
     95 H51         13.0000    -0.1860    -0.4920 hc         1 BGA       0.031367
@<TRIPOS>BOND
     1     1    31 1   
     2     1    33 1   
     3     1    43 1   
     4     2     3 1   
     5     2     4 1   
     6     2    11 1   
     7     2    44 1   
     8     3    24 1   
     9     4     5 1   
    10     4     6 1   
    11     4    45 1   
    12     5    14 1   
    13     6     7 1   
    14     6     8 1   
    15     6    46 1   
    16     7    42 1   
    17     8     9 1   
    18     8    10 1   
    19     8    47 1   
    20     9    48 1   
    21    10    11 1   
    22    10    12 1   
    23    10    49 1   
    24    12    13 1   
    25    12    50 1   
    26    12    51 1   
    27    13    52 1   
    28    14    15 1   
    29    14    23 1   
    30    14    53 1   
    31    15    16 1   
    32    15    20 1   
    33    15    54 1   
    34    16    17 1   
    35    16    21 1   
    36    16    55 1   
    37    17    18 1   
    38    17    22 1   
    39    17    56 1   
    40    18    19 1   
    41    18    23 1   
    42    18    57 1   
    43    19    58 1   
    44    19    59 1   
    45    19    60 1   
    46    20    61 1   
    47    21    62 1   
    48    22    63 1   
    49    24    25 1   
    50    24    64 1   
    51    24    65 1   
    52    25    26 1   
    53    25    66 1   
    54    25    67 1   
    55    26    27 1   
    56    26    68 1   
    57    26    69 1   
    58    27    28 1   
    59    27    70 1   
    60    27    71 1   
    61    28    29 1   
    62    28    72 1   
    63    28    73 1   
    64    29    74 1   
    65    29    75 1   
    66    29    76 1   
    67    30    31 1   
    68    30    77 1   
    69    30    78 1   
    70    30    79 1   
    71    31    32 2   
    72    33    34 1   
    73    33    42 1   
    74    33    80 1   
    75    34    35 1   
    76    34    36 1   
    77    34    81 1   
    78    35    82 1   
    79    36    37 1   
    80    36    38 1   
    81    36    83 1   
    82    37    84 1   
    83    38    39 1   
    84    38    41 1   
    85    38    85 1   
    86    39    40 1   
    87    39    86 1   
    88    39    87 1   
    89    40    88 1   
    90    41    42 1   
    91    42    89 1   
    92    74    90 1   
    93    74    91 1   
    94    74    92 1   
    95    90    93 1   
    96    90    94 1   
    97    90    95 1   
@<TRIPOS>SUBSTRUCTURE
     1 BGA         1 TEMP              0 ****  ****    0 ROOT
