@<TRIPOS>MOLECULE
BGA
   95    97     1     0     0
SMALL
No Charge or Current Charge


@<TRIPOS>ATOM
      1 N           -4.9010    -0.5910    -1.9860 ns         1 BGA      -0.476900
      2 C1           1.0730    -1.3720     0.7490 c6         1 BGA       0.398300
      3 O1           2.3140    -0.9260     0.1710 os         1 BGA      -0.442000
      4 C2          -0.1270    -0.6520     0.0550 c6         1 BGA       0.153300
      5 O2          -0.0640     0.7830     0.3150 os         1 BGA      -0.462000
      6 C3          -1.4840    -1.2660     0.5380 c6         1 BGA       0.165300
      7 O3          -2.5960    -0.6550    -0.1720 os         1 BGA      -0.483000
      8 C4          -1.4700    -2.8250     0.3770 c6         1 BGA       0.106300
      9 O4          -1.4820    -3.1940    -1.0250 oh         1 BGA      -0.702000
     10 C5          -0.2160    -3.3800     1.1280 c6         1 BGA       0.155300
     11 O5           0.9880    -2.8010     0.5730 os         1 BGA      -0.465000
     12 C6          -0.1010    -4.9400     1.0720 c3         1 BGA       0.167600
     13 O6           1.0240    -5.4510     1.8150 oh         1 BGA      -0.710000
     14 CAA         -0.5820     1.6310    -0.7370 c6         1 BGA       0.388300
     15 CAB         -0.7300     3.1250    -0.2730 c6         1 BGA       0.114300
     16 CAC          0.6770     3.7460    -0.0030 c6         1 BGA       0.164300
     17 CAD          1.5990     3.5820    -1.2480 c6         1 BGA       0.147300
     18 CAE          1.6450     2.0640    -1.6220 c6         1 BGA       0.136300
     19 CAF          2.4980     1.7510    -2.8770 c3         1 BGA      -0.091100
     20 OAG         -1.5710     3.2890     0.8960 oh         1 BGA      -0.714000
     21 OAH          0.5460     5.1420     0.3200 oh         1 BGA      -0.645000
     22 OAI          1.0970     4.4070    -2.3270 oh         1 BGA      -0.703000
     23 OAJ          0.3120     1.5580    -1.8760 os         1 BGA      -0.464000
     24 CAW          3.5160    -1.3630     0.8180 c3         1 BGA       0.165600
     25 CAX          4.6980    -0.7120     0.0730 c3         1 BGA      -0.082400
     26 CAY          6.0700    -1.0890     0.6720 c3         1 BGA      -0.074400
     27 CAZ          7.2540    -0.4350    -0.0750 c3         1 BGA      -0.074400
     28 CBA          8.6270    -0.8110     0.5240 c3         1 BGA      -0.074400
     29 CBB          9.8110    -0.1570    -0.2230 c3         1 BGA      -0.075400
     30 CBC         -5.0420    -1.9120    -4.0360 c3         1 BGA      -0.179100
     31 CBD         -5.2440    -1.8020    -2.5310 c          1 BGA       0.607100
     32 OBE         -5.6800    -2.7210    -1.8540 o          1 BGA      -0.619100
     33 CBG         -5.0050    -0.2410    -0.5500 c6         1 BGA       0.103700
     34 CBH         -4.8900     1.3030    -0.3330 c6         1 BGA       0.171300
     35 OBI         -5.9270     1.9980    -1.0440 oh         1 BGA      -0.628000
     36 CBJ         -4.9820     1.6570     1.1810 c6         1 BGA       0.111300
     37 OBK         -6.3190     1.3650     1.6540 oh         1 BGA      -0.693000
     38 CBL         -3.8820     0.8450     1.9390 c6         1 BGA       0.127300
     39 CBM         -3.8680     1.0970     3.4810 c3         1 BGA       0.169600
     40 OBN         -2.8310     0.3650     4.1630 oh         1 BGA      -0.706000
     41 OBO         -4.0440    -0.5770     1.6970 os         1 BGA      -0.450000
     42 CBP         -3.9230    -0.9670     0.3100 c6         1 BGA       0.361300
     43 HN          -4.5610     0.1160    -2.6270 hn         1 BGA       0.313500
     44 H1           1.0640    -1.1340     1.8230 h2         1 BGA       0.029700
     45 H2          -0.0260    -0.8330    -1.0240 h1         1 BGA       0.092700
     46 H3          -1.5810    -1.0320     1.6090 h1         1 BGA       0.069700
     47 H4          -2.3620    -3.2290     0.8780 h1         1 BGA       0.049700
     48 HO4         -1.9240    -4.0700    -1.1010 ho         1 BGA       0.507000
     49 H5          -0.2850    -3.0960     2.1890 h1         1 BGA       0.053700
     50 H6          -1.0330    -5.3650     1.4680 h1         1 BGA       0.029700
     51 H6A         -0.0230    -5.2460     0.0200 h1         1 BGA       0.029700
     52 HO6          1.0630    -6.4220     1.6460 ho         1 BGA       0.505000
     53 HAA         -1.5760     1.2780    -1.0440 h2         1 BGA       0.076700
     54 HAB         -1.1800     3.6690    -1.1160 h1         1 BGA       0.071700
     55 HAC          1.1370     3.2090     0.8400 h1         1 BGA       0.058700
     56 HAD          2.6170     3.9000    -0.9750 h1         1 BGA       0.046700
     57 HAE          2.0870     1.5100    -0.7810 h1         1 BGA       0.065700
     58 HAF          3.5180     2.1410    -2.7670 hc         1 BGA       0.045700
     59 HAFA         2.5770     0.6680    -3.0300 hc         1 BGA       0.045700
     60 HAFB         2.0640     2.1840    -3.7860 hc         1 BGA       0.045700
     61 HOAG        -1.2960     4.1510     1.2870 ho         1 BGA       0.498000
     62 HOAH         0.6020     5.5960    -0.5530 ho         1 BGA       0.447000
     63 HOAI         1.6050     4.1690    -3.1350 ho         1 BGA       0.504000
     64 HAW          3.5270    -1.0500     1.8710 h1         1 BGA       0.035200
     65 HAWA         3.6110    -2.4560     0.7770 h1         1 BGA       0.035200
     66 HAX          4.6660    -1.0170    -0.9810 hc         1 BGA       0.047700
     67 HAXA         4.5790     0.3780     0.0970 hc         1 BGA       0.047700
     68 HAY          6.0980    -0.7870     1.7260 hc         1 BGA       0.040700
     69 HAYA         6.1870    -2.1800     0.6480 hc         1 BGA       0.040700
     70 HAZ          7.2260    -0.7380    -1.1290 hc         1 BGA       0.037200
     71 HAZA         7.1370     0.6550    -0.0510 hc         1 BGA       0.037200
     72 HBA          8.6560    -0.5080     1.5780 hc         1 BGA       0.038200
     73 HBAA         8.7450    -1.9010     0.5000 hc         1 BGA       0.038200
     74 C27         11.1840    -0.5320     0.3750 c3         1 BGA      -0.074400
     75 HBB          9.7830    -0.4600    -1.2770 hc         1 BGA       0.036700
     76 HBBA         9.6940     0.9340    -0.1990 hc         1 BGA       0.036700
     77 HBC         -3.9990    -1.6730    -4.2730 hc         1 BGA       0.061700
     78 HBCA        -5.3310    -2.8930    -4.4300 hc         1 BGA       0.061700
     79 HBCB        -5.5860    -1.1000    -4.5300 hc         1 BGA       0.061700
     80 HBG         -5.9890    -0.5710    -0.1880 h1         1 BGA       0.120700
     81 HBH         -3.9090     1.6340    -0.7050 h1         1 BGA       0.040700
     82 HOBI        -6.6800     2.0180    -0.4110 ho         1 BGA       0.438000
     83 HBJ         -4.7680     2.7290     1.3020 h1         1 BGA       0.027700
     84 HOBK        -6.4170     1.7700     2.5460 ho         1 BGA       0.500000
     85 HBL         -2.8970     1.1550     1.5610 h1         1 BGA       0.085700
     86 HBM         -3.7360     2.1740     3.6500 h1         1 BGA       0.023700
     87 HBMA        -4.8480     0.8180     3.8900 h1         1 BGA       0.023700
     88 HOBN        -2.9490     0.5320     5.1270 ho         1 BGA       0.504000
     89 HBP         -4.0960    -2.0510     0.2270 h2         1 BGA       0.087700
     90 C28         12.3650     0.1200    -0.3700 c3         1 BGA      -0.088100
     91 H47         11.2170    -0.2290     1.4290 hc         1 BGA       0.036700
     92 H48         11.3060    -1.6220     0.3520 hc         1 BGA       0.036700
     93 H49         12.3810    -0.1930    -1.4210 hc         1 BGA       0.031367
     94 H50         12.2910     1.2130    -0.3340 hc         1 BGA       0.031367
     95 H51         13.3160    -0.1750     0.0900 hc         1 BGA       0.031367
@<TRIPOS>BOND
     1     1    31 1   
     2     1    33 1   
     3     1    43 1   
     4     2     3 1   
     5     2     4 1   
     6     2    11 1   
     7     2    44 1   
     8     3    24 1   
     9     4     5 1   
    10     4     6 1   
    11     4    45 1   
    12     5    14 1   
    13     6     7 1   
    14     6     8 1   
    15     6    46 1   
    16     7    42 1   
    17     8     9 1   
    18     8    10 1   
    19     8    47 1   
    20     9    48 1   
    21    10    11 1   
    22    10    12 1   
    23    10    49 1   
    24    12    13 1   
    25    12    50 1   
    26    12    51 1   
    27    13    52 1   
    28    14    15 1   
    29    14    23 1   
    30    14    53 1   
    31    15    16 1   
    32    15    20 1   
    33    15    54 1   
    34    16    17 1   
    35    16    21 1   
    36    16    55 1   
    37    17    18 1   
    38    17    22 1   
    39    17    56 1   
    40    18    19 1   
    41    18    23 1   
    42    18    57 1   
    43    19    58 1   
    44    19    59 1   
    45    19    60 1   
    46    20    61 1   
    47    21    62 1   
    48    22    63 1   
    49    24    25 1   
    50    24    64 1   
    51    24    65 1   
    52    25    26 1   
    53    25    66 1   
    54    25    67 1   
    55    26    27 1   
    56    26    68 1   
    57    26    69 1   
    58    27    28 1   
    59    27    70 1   
    60    27    71 1   
    61    28    29 1   
    62    28    72 1   
    63    28    73 1   
    64    29    74 1   
    65    29    75 1   
    66    29    76 1   
    67    30    31 1   
    68    30    77 1   
    69    30    78 1   
    70    30    79 1   
    71    31    32 2   
    72    33    34 1   
    73    33    42 1   
    74    33    80 1   
    75    34    35 1   
    76    34    36 1   
    77    34    81 1   
    78    35    82 1   
    79    36    37 1   
    80    36    38 1   
    81    36    83 1   
    82    37    84 1   
    83    38    39 1   
    84    38    41 1   
    85    38    85 1   
    86    39    40 1   
    87    39    86 1   
    88    39    87 1   
    89    40    88 1   
    90    41    42 1   
    91    42    89 1   
    92    74    90 1   
    93    74    91 1   
    94    74    92 1   
    95    90    93 1   
    96    90    94 1   
    97    90    95 1   
@<TRIPOS>SUBSTRUCTURE
     1 BGA         1 TEMP              0 ****  ****    0 ROOT
