@<TRIPOS>MOLECULE
BGB
   89    91     1     0     0
SMALL
No Charge or Current Charge


@<TRIPOS>ATOM
      1 C1           4.2050    -1.3810     0.2740 c6         1 BGB       0.362300
      2 O1           2.8820    -0.9360     0.6460 os         1 BGB      -0.457000
      3 C2           5.2750    -0.6110     1.1190 c6         1 BGB       0.117300
      4 O2           5.0140    -0.7200     2.5400 oh         1 BGB      -0.708000
      5 C3           5.3120     0.8950     0.7030 c6         1 BGB       0.137300
      6 O3           6.3780     1.5680     1.4030 oh         1 BGB      -0.676000
      7 C4           5.4860     1.0580    -0.8370 c6         1 BGB       0.151300
      8 O4           6.8220     0.6560    -1.2020 oh         1 BGB      -0.718000
      9 C5           4.3810     0.2190    -1.5580 c6         1 BGB       0.159300
     10 O5           4.4290    -1.1720    -1.1380 os         1 BGB      -0.460000
     11 C6           4.4940     0.2800    -3.1160 c3         1 BGB       0.173600
     12 O6           3.4600    -0.4670    -3.7920 oh         1 BGB      -0.719000
     13 CAM          1.7690    -1.5580    -0.0520 c6         1 BGB       0.160300
     14 CAN          1.6340    -3.0770     0.3070 c6         1 BGB       0.107300
     15 OAO          1.5530    -3.2510     1.7430 oh         1 BGB      -0.693000
     16 CAP          0.3830    -3.6450    -0.4370 c6         1 BGB       0.150300
     17 CAQ          0.1520    -5.1730    -0.1890 c3         1 BGB       0.167600
     18 OAR         -0.9690    -5.7020    -0.9240 oh         1 BGB      -0.707000
     19 OAS         -0.8020    -2.9190    -0.0340 os         1 BGB      -0.466000
     20 CAT         -0.7760    -1.5240    -0.3990 c6         1 BGB       0.398300
     21 OAU         -2.0070    -0.9250     0.0430 os         1 BGB      -0.440000
     22 CAV         -3.2060    -1.3640    -0.6090 c3         1 BGB       0.163600
     23 CAW          0.4380    -0.8000     0.2650 c6         1 BGB       0.154300
     24 OAX          0.4970     0.5890    -0.1800 os         1 BGB      -0.465000
     25 CAY          1.0010     1.5340     0.7930 c6         1 BGB       0.382300
     26 OAZ          0.0240     1.6720     1.8550 os         1 BGB      -0.462000
     27 CBA         -1.2440     2.2270     1.4310 c6         1 BGB       0.132300
     28 CBB         -2.2080     2.1410     2.6410 c3         1 BGB      -0.090100
     29 CBC         -1.0560     3.6760     0.8720 c6         1 BGB       0.148300
     30 OBD         -0.5720     4.6010     1.8750 oh         1 BGB      -0.702000
     31 CBE         -0.0360     3.6120    -0.3040 c6         1 BGB       0.164300
     32 OBF          0.2240     4.9410    -0.7920 oh         1 BGB      -0.646000
     33 CBG          1.2960     2.9410     0.1570 c6         1 BGB       0.115300
     34 OBH          2.2310     2.8930    -0.9480 oh         1 BGB      -0.718000
     35 CBI         -4.3700    -0.5430    -0.0230 c3         1 BGB      -0.081400
     36 CBJ         -5.7370    -0.9030    -0.6460 c3         1 BGB      -0.074400
     37 CBK         -6.9030    -0.0780    -0.0600 c3         1 BGB      -0.074400
     38 CBL         -8.2700    -0.4370    -0.6820 c3         1 BGB      -0.074400
     39 CBM         -9.4370     0.3880    -0.0960 c3         1 BGB      -0.075400
     40 H1           4.3020    -2.4540     0.4950 h2         1 BGB       0.063700
     41 H2           6.2540    -1.0580     0.8900 h1         1 BGB       0.061700
     42 HO2          4.0350    -0.8200     2.6290 ho         1 BGB       0.511000
     43 H3           4.3470     1.3480     0.9760 h1         1 BGB       0.067700
     44 HO3          6.3420     1.2150     2.3230 ho         1 BGB       0.469000
     45 H4           5.3330     2.1180    -1.0900 h1         1 BGB       0.049700
     46 HO4          7.3820     0.9830    -0.4560 ho         1 BGB       0.521000
     47 H5           3.3980     0.6320    -1.2940 h1         1 BGB       0.088700
     48 H6           4.4520     1.3360    -3.4170 h1         1 BGB       0.036700
     49 H6A          5.4820    -0.1020    -3.4060 h1         1 BGB       0.036700
     50 HO6          3.6680    -0.4370    -4.7550 ho         1 BGB       0.503000
     51 HAM          1.9400    -1.4730    -1.1350 h1         1 BGB       0.073700
     52 HAN          2.5190    -3.6020    -0.0820 h1         1 BGB       0.043700
     53 HOAO         1.7870    -4.1850     1.9470 ho         1 BGB       0.497000
     54 HAP          0.5240    -3.5100    -1.5200 h1         1 BGB       0.056700
     55 HAQ          1.0690    -5.7070    -0.4720 h1         1 BGB       0.026200
     56 HAQA        -0.0010    -5.3320     0.8870 h1         1 BGB       0.026200
     57 HOAR        -1.0850    -6.6380    -0.6380 ho         1 BGB       0.504000
     58 HAT         -0.6970    -1.4320    -1.4930 h2         1 BGB       0.031700
     59 HAV         -3.1430    -1.1940    -1.6920 h1         1 BGB       0.034700
     60 HAVA        -3.3820    -2.4330    -0.4320 h1         1 BGB       0.034700
     61 HAW          0.2680    -0.8290     1.3500 h1         1 BGB       0.099700
     62 HAY          1.9420     1.1600     1.2210 h2         1 BGB       0.091700
     63 HBA         -1.6650     1.5980     0.6330 h1         1 BGB       0.065700
     64 HBB         -1.8100     2.6600     3.5200 hc         1 BGB       0.045033
     65 HBBA        -3.1840     2.5780     2.3990 hc         1 BGB       0.045033
     66 HBBB        -2.3800     1.0950     2.9230 hc         1 BGB       0.045033
     67 HBC         -2.0240     4.0220     0.4780 h1         1 BGB       0.044700
     68 HOBD        -1.1540     4.5050     2.6630 ho         1 BGB       0.503000
     69 HBE         -0.4730     2.9990    -1.1070 h1         1 BGB       0.056700
     70 HOBF         0.1380     5.5110     0.0080 ho         1 BGB       0.447000
     71 HBG          1.7220     3.5610     0.9600 h1         1 BGB       0.074700
     72 HOBH         2.0490     3.7110    -1.4700 ho         1 BGB       0.503000
     73 HBI         -4.4120    -0.7060     1.0610 hc         1 BGB       0.048700
     74 HBIA        -4.1710     0.5240    -0.1820 hc         1 BGB       0.048700
     75 HBJ         -5.6910    -0.7430    -1.7310 hc         1 BGB       0.040200
     76 HBJA        -5.9340    -1.9710    -0.4880 hc         1 BGB       0.040200
     77 HBK         -6.9480    -0.2390     1.0250 hc         1 BGB       0.037700
     78 HBKA        -6.7050     0.9890    -0.2180 hc         1 BGB       0.037700
     79 HBL         -8.2250    -0.2770    -1.7670 hc         1 BGB       0.037700
     80 HBLA        -8.4690    -1.5050    -0.5240 hc         1 BGB       0.037700
     81 HBM         -9.4820     0.2280     0.9890 hc         1 BGB       0.036700
     82 HBMA        -9.2380     1.4550    -0.2540 hc         1 BGB       0.036700
     83 C25        -10.8040     0.0290    -0.7180 c3         1 BGB      -0.074400
     84 C26        -11.9680     0.8520    -0.1330 c3         1 BGB      -0.088100
     85 H44        -10.7630     0.1900    -1.8030 hc         1 BGB       0.036700
     86 H45        -11.0070    -1.0370    -0.5600 hc         1 BGB       0.036700
     87 H46        -12.9150     0.5630    -0.6050 hc         1 BGB       0.031367
     88 H47        -12.0570     0.6850     0.9470 hc         1 BGB       0.031367
     89 H48        -11.8110     1.9240    -0.3070 hc         1 BGB       0.031367
@<TRIPOS>BOND
     1     1     2 1   
     2     1     3 1   
     3     1    10 1   
     4     1    40 1   
     5     2    13 1   
     6     3     4 1   
     7     3     5 1   
     8     3    41 1   
     9     4    42 1   
    10     5     6 1   
    11     5     7 1   
    12     5    43 1   
    13     6    44 1   
    14     7     8 1   
    15     7     9 1   
    16     7    45 1   
    17     8    46 1   
    18     9    10 1   
    19     9    11 1   
    20     9    47 1   
    21    11    12 1   
    22    11    48 1   
    23    11    49 1   
    24    12    50 1   
    25    13    14 1   
    26    13    23 1   
    27    13    51 1   
    28    14    15 1   
    29    14    16 1   
    30    14    52 1   
    31    15    53 1   
    32    16    17 1   
    33    16    19 1   
    34    16    54 1   
    35    17    18 1   
    36    17    55 1   
    37    17    56 1   
    38    18    57 1   
    39    19    20 1   
    40    20    21 1   
    41    20    23 1   
    42    20    58 1   
    43    21    22 1   
    44    22    35 1   
    45    22    59 1   
    46    22    60 1   
    47    23    24 1   
    48    23    61 1   
    49    24    25 1   
    50    25    26 1   
    51    25    33 1   
    52    25    62 1   
    53    26    27 1   
    54    27    28 1   
    55    27    29 1   
    56    27    63 1   
    57    28    64 1   
    58    28    65 1   
    59    28    66 1   
    60    29    30 1   
    61    29    31 1   
    62    29    67 1   
    63    30    68 1   
    64    31    32 1   
    65    31    33 1   
    66    31    69 1   
    67    32    70 1   
    68    33    34 1   
    69    33    71 1   
    70    34    72 1   
    71    35    36 1   
    72    35    73 1   
    73    35    74 1   
    74    36    37 1   
    75    36    75 1   
    76    36    76 1   
    77    37    38 1   
    78    37    77 1   
    79    37    78 1   
    80    38    39 1   
    81    38    79 1   
    82    38    80 1   
    83    39    81 1   
    84    39    82 1   
    85    39    83 1   
    86    83    84 1   
    87    83    85 1   
    88    83    86 1   
    89    84    87 1   
    90    84    88 1   
    91    84    89 1   
@<TRIPOS>SUBSTRUCTURE
     1 BGB         1 TEMP              0 ****  ****    0 ROOT
