@<TRIPOS>MOLECULE
BGB
   89    91     1     0     0
SMALL
abcg2


@<TRIPOS>ATOM
      1 C1           4.0770    -1.3540     0.3030 c6         1 BGB       0.362300
      2 O1           2.7910    -0.9230     0.6230 os         1 BGB      -0.457000
      3 C2           5.0700    -0.5370     1.1360 c6         1 BGB       0.117300
      4 O2           4.7730    -0.5560     2.5100 oh         1 BGB      -0.708000
      5 C3           5.0750     0.9160     0.6770 c6         1 BGB       0.137300
      6 O3           6.0880     1.6590     1.3160 oh         1 BGB      -0.676000
      7 C4           5.3260     0.9920    -0.8270 c6         1 BGB       0.151300
      8 O4           6.6270     0.5670    -1.1570 oh         1 BGB      -0.718000
      9 C5           4.3150     0.1110    -1.5440 c6         1 BGB       0.159300
     10 O5           4.3670    -1.2240    -1.0560 os         1 BGB      -0.460000
     11 C6           4.5380     0.0610    -3.0390 c3         1 BGB       0.173600
     12 O6           3.4360    -0.5890    -3.6310 oh         1 BGB      -0.719000
     13 CAM          1.7270    -1.5040    -0.0920 c6         1 BGB       0.160300
     14 CAN          1.6200    -3.0150     0.1110 c6         1 BGB       0.107300
     15 OAO          1.6180    -3.2760     1.4920 oh         1 BGB      -0.693000
     16 CAP          0.3460    -3.4950    -0.5860 c6         1 BGB       0.150300
     17 CAQ          0.1210    -4.9820    -0.4140 c3         1 BGB       0.167600
     18 OAR         -0.9500    -5.3760    -1.2360 oh         1 BGB      -0.707000
     19 OAS         -0.7720    -2.8120    -0.0710 os         1 BGB      -0.466000
     20 CAT         -0.7550    -1.4310    -0.3270 c6         1 BGB       0.398300
     21 OAU         -1.9050    -0.8870     0.1890 os         1 BGB      -0.440000
     22 CAV         -3.0890    -1.1780    -0.5390 c3         1 BGB       0.163600
     23 CAW          0.4540    -0.7840     0.3530 c6         1 BGB       0.154300
     24 OAX          0.5080     0.5720    -0.0320 os         1 BGB      -0.465000
     25 CAY          0.7920     1.4870     0.9860 c6         1 BGB       0.382300
     26 OAZ         -0.2670     1.6270     1.8870 os         1 BGB      -0.462000
     27 CBA         -1.4630     2.1880     1.3570 c6         1 BGB       0.132300
     28 CBB         -2.4950     2.1680     2.4650 c3         1 BGB      -0.090100
     29 CBC         -1.2100     3.5830     0.7870 c6         1 BGB       0.148300
     30 OBD         -0.7990     4.5130     1.7600 oh         1 BGB      -0.702000
     31 CBE         -0.1180     3.4700    -0.2640 c6         1 BGB       0.164300
     32 OBF          0.1520     4.7440    -0.7950 oh         1 BGB      -0.646000
     33 CBG          1.1290     2.8370     0.3490 c6         1 BGB       0.115300
     34 OBH          2.1290     2.6900    -0.6370 oh         1 BGB      -0.718000
     35 CBI         -4.2350    -0.3730     0.0400 c3         1 BGB      -0.081400
     36 CBJ         -5.5670    -0.7410    -0.6030 c3         1 BGB      -0.074400
     37 CBK         -6.7370     0.0440    -0.0230 c3         1 BGB      -0.074400
     38 CBL         -8.0840    -0.3690    -0.6010 c3         1 BGB      -0.074400
     39 CBM         -9.2550     0.3980     0.0000 c3         1 BGB      -0.075400
     40 H1           4.2020    -2.4220     0.5240 h2         1 BGB       0.063700
     41 H2           6.0640    -0.9610     0.9430 h1         1 BGB       0.061700
     42 HO2          5.0870    -1.3840     2.8850 ho         1 BGB       0.511000
     43 H3           4.0880     1.3560     0.8760 h1         1 BGB       0.067700
     44 HO3          6.0480     1.4750     2.2600 ho         1 BGB       0.469000
     45 H4           5.1590     2.0300    -1.1540 h1         1 BGB       0.049700
     46 HO4          7.2420     1.0180    -0.5690 ho         1 BGB       0.521000
     47 H5           3.3250     0.5460    -1.3610 h1         1 BGB       0.088700
     48 H6           4.6410     1.0930    -3.3990 h1         1 BGB       0.036700
     49 H6A          5.4800    -0.4530    -3.2630 h1         1 BGB       0.036700
     50 HO6          3.6100    -0.6690    -4.5730 ho         1 BGB       0.503000
     51 HAM          1.8500    -1.3340    -1.1720 h1         1 BGB       0.073700
     52 HAN          2.4700    -3.5010    -0.3870 h1         1 BGB       0.043700
     53 HOAO         1.8780    -4.1900     1.6400 ho         1 BGB       0.497000
     54 HAP          0.4630    -3.2890    -1.6630 h1         1 BGB       0.056700
     55 HAQ          1.0520    -5.4980    -0.6840 h1         1 BGB       0.026200
     56 HAQA        -0.0800    -5.2030     0.6420 h1         1 BGB       0.026200
     57 HOAR        -1.1310    -6.3050    -1.0640 ho         1 BGB       0.504000
     58 HAT         -0.6920    -1.2640    -1.4210 h2         1 BGB       0.031700
     59 HAV         -2.9480    -0.9320    -1.6000 h1         1 BGB       0.034700
     60 HAVA        -3.3220    -2.2470    -0.4840 h1         1 BGB       0.034700
     61 HAW          0.3280    -0.8880     1.4380 h1         1 BGB       0.099700
     62 HAY          1.6380     1.1380     1.5880 h2         1 BGB       0.091700
     63 HBA         -1.8330     1.5690     0.5340 h1         1 BGB       0.065700
     64 HBB         -2.1650     2.7190     3.3470 hc         1 BGB       0.045033
     65 HBBA        -3.4310     2.6070     2.1170 hc         1 BGB       0.045033
     66 HBBB        -2.7090     1.1440     2.7700 hc         1 BGB       0.045033
     67 HBC         -2.1390     3.9100     0.2960 h1         1 BGB       0.044700
     68 HOBD        -1.5360     4.6830     2.3540 ho         1 BGB       0.503000
     69 HBE         -0.4990     2.8000    -1.0490 h1         1 BGB       0.056700
     70 HOBF         0.8010     4.6350    -1.4970 ho         1 BGB       0.447000
     71 HBG          1.4840     3.4810     1.1610 h1         1 BGB       0.074700
     72 HOBH         2.8610     3.2730    -0.4220 ho         1 BGB       0.503000
     73 HBI         -4.2920    -0.5500     1.1190 hc         1 BGB       0.048700
     74 HBIA        -4.0450     0.6960    -0.0940 hc         1 BGB       0.048700
     75 HBJ         -5.5150    -0.5730    -1.6840 hc         1 BGB       0.040200
     76 HBJA        -5.7470    -1.8130    -0.4690 hc         1 BGB       0.040200
     77 HBK         -6.7560    -0.0900     1.0650 hc         1 BGB       0.037700
     78 HBKA        -6.5800     1.1150    -0.1920 hc         1 BGB       0.037700
     79 HBL         -8.0750    -0.2270    -1.6880 hc         1 BGB       0.037700
     80 HBLA        -8.2310    -1.4420    -0.4380 hc         1 BGB       0.037700
     81 HBM         -9.2480     0.2710     1.0890 hc         1 BGB       0.036700
     82 HBMA        -9.1200     1.4710    -0.1780 hc         1 BGB       0.036700
     83 C25        -10.6090    -0.0360    -0.5480 c3         1 BGB      -0.074400
     84 C26        -11.7710     0.7300     0.0700 c3         1 BGB      -0.088100
     85 H44        -10.6200     0.0960    -1.6340 hc         1 BGB       0.036700
     86 H45        -10.7400    -1.1080    -0.3720 hc         1 BGB       0.036700
     87 H46        -12.7290     0.4010    -0.3340 hc         1 BGB       0.031367
     88 H47        -11.8030     0.5920     1.1520 hc         1 BGB       0.031367
     89 H48        -11.6820     1.8010    -0.1200 hc         1 BGB       0.031367
@<TRIPOS>BOND
     1     1     2 1   
     2     1     3 1   
     3     1    10 1   
     4     1    40 1   
     5     2    13 1   
     6     3     4 1   
     7     3     5 1   
     8     3    41 1   
     9     4    42 1   
    10     5     6 1   
    11     5     7 1   
    12     5    43 1   
    13     6    44 1   
    14     7     8 1   
    15     7     9 1   
    16     7    45 1   
    17     8    46 1   
    18     9    10 1   
    19     9    11 1   
    20     9    47 1   
    21    11    12 1   
    22    11    48 1   
    23    11    49 1   
    24    12    50 1   
    25    13    14 1   
    26    13    23 1   
    27    13    51 1   
    28    14    15 1   
    29    14    16 1   
    30    14    52 1   
    31    15    53 1   
    32    16    17 1   
    33    16    19 1   
    34    16    54 1   
    35    17    18 1   
    36    17    55 1   
    37    17    56 1   
    38    18    57 1   
    39    19    20 1   
    40    20    21 1   
    41    20    23 1   
    42    20    58 1   
    43    21    22 1   
    44    22    35 1   
    45    22    59 1   
    46    22    60 1   
    47    23    24 1   
    48    23    61 1   
    49    24    25 1   
    50    25    26 1   
    51    25    33 1   
    52    25    62 1   
    53    26    27 1   
    54    27    28 1   
    55    27    29 1   
    56    27    63 1   
    57    28    64 1   
    58    28    65 1   
    59    28    66 1   
    60    29    30 1   
    61    29    31 1   
    62    29    67 1   
    63    30    68 1   
    64    31    32 1   
    65    31    33 1   
    66    31    69 1   
    67    32    70 1   
    68    33    34 1   
    69    33    71 1   
    70    34    72 1   
    71    35    36 1   
    72    35    73 1   
    73    35    74 1   
    74    36    37 1   
    75    36    75 1   
    76    36    76 1   
    77    37    38 1   
    78    37    77 1   
    79    37    78 1   
    80    38    39 1   
    81    38    79 1   
    82    38    80 1   
    83    39    81 1   
    84    39    82 1   
    85    39    83 1   
    86    83    84 1   
    87    83    85 1   
    88    83    86 1   
    89    84    87 1   
    90    84    88 1   
    91    84    89 1   
@<TRIPOS>SUBSTRUCTURE
     1 BGB         1 TEMP              0 ****  ****    0 ROOT
