@<TRIPOS>MOLECULE
BGC
   24    24     1     0     0
SMALL
abcg2


@<TRIPOS>ATOM
      1 C2          -1.6080     0.3110    -0.2230 c6         1 BGC       0.112300
      2 C3          -1.0650    -1.0390     0.2210 c6         1 BGC       0.137300
      3 C4           0.3800    -1.2190    -0.2290 c6         1 BGC       0.142300
      4 C5           1.2140    -0.0150     0.2130 c6         1 BGC       0.181300
      5 C6           2.6310    -0.0850    -0.3170 c3         1 BGC       0.171600
      6 C1          -0.6590     1.4070     0.2530 c6         1 BGC       0.364300
      7 O1          -1.1120     2.6220    -0.2180 oh         1 BGC      -0.705000
      8 O2          -2.8910     0.4540     0.3340 oh         1 BGC      -0.726000
      9 O3          -1.8070    -2.1130    -0.3080 oh         1 BGC      -0.725000
     10 O4           0.9500    -2.3760     0.3320 oh         1 BGC      -0.719000
     11 O5           0.6250     1.1710    -0.2740 os         1 BGC      -0.468000
     12 O6           3.3590     1.0060     0.1960 oh         1 BGC      -0.713000
     13 H2          -1.6410     0.3420    -1.3230 h1         1 BGC       0.069700
     14 H3          -1.0790    -1.0630     1.3230 h1         1 BGC       0.051700
     15 H4           0.3980    -1.2660    -1.3300 h1         1 BGC       0.057700
     16 H5           1.2460     0.0020     1.3150 h1         1 BGC       0.057700
     17 H6C1         3.0680    -1.0420    -0.0120 h1         1 BGC       0.037700
     18 H6C2         2.6030    -0.0770    -1.4150 h1         1 BGC       0.037700
     19 H1          -0.6100     1.3930     1.3560 h2         1 BGC       0.029700
     20 HA          -0.7700     3.3310     0.3370 ho         1 BGC       0.525000
     21 HB          -3.3110     1.2260    -0.0580 ho         1 BGC       0.525000
     22 HC          -2.6810    -2.1070     0.0940 ho         1 BGC       0.526000
     23 HD           0.4000    -3.1290     0.0910 ho         1 BGC       0.526000
     24 H6           4.2750     0.9060    -0.0790 ho         1 BGC       0.504000
@<TRIPOS>BOND
     1     1     2 1   
     2     1     6 1   
     3     1     8 1   
     4     1    13 1   
     5     2     3 1   
     6     2     9 1   
     7     2    14 1   
     8     3     4 1   
     9     3    10 1   
    10     3    15 1   
    11     4     5 1   
    12     4    11 1   
    13     4    16 1   
    14     5    12 1   
    15     5    17 1   
    16     5    18 1   
    17     6     7 1   
    18     6    11 1   
    19     6    19 1   
    20     7    20 1   
    21     8    21 1   
    22     9    22 1   
    23    10    23 1   
    24    12    24 1   
@<TRIPOS>SUBSTRUCTURE
     1 BGC         1 TEMP              0 ****  ****    0 ROOT
