@<TRIPOS>MOLECULE
BGC
   24    24     1     0     0
SMALL
No Charge or Current Charge


@<TRIPOS>ATOM
      1 C2          -1.6710     0.2400    -0.1800 c6         1 BGC       0.112300
      2 C3          -1.0710    -1.1280     0.2460 c6         1 BGC       0.137300
      3 C4           0.4030    -1.2380    -0.2460 c6         1 BGC       0.142300
      4 C5           1.2200    -0.0150     0.2880 c6         1 BGC       0.181300
      5 C6           2.6930    -0.0060    -0.2410 c3         1 BGC       0.171600
      6 C1          -0.7530     1.3770     0.3830 c6         1 BGC       0.364300
      7 O1          -1.1760     2.6430    -0.0770 oh         1 BGC      -0.705000
      8 O2          -3.0400     0.3610     0.2780 oh         1 BGC      -0.726000
      9 O3          -1.8700    -2.2080    -0.2710 oh         1 BGC      -0.725000
     10 O4           0.9550    -2.4990     0.1780 oh         1 BGC      -0.719000
     11 O5           0.5770     1.2260    -0.1170 os         1 BGC      -0.468000
     12 O6           3.4520     1.1440     0.1920 oh         1 BGC      -0.713000
     13 H2          -1.6390     0.3030    -1.2790 h1         1 BGC       0.069700
     14 H3          -1.0690    -1.1660     1.3470 h1         1 BGC       0.051700
     15 H4           0.4010    -1.1870    -1.3450 h1         1 BGC       0.057700
     16 H5           1.2530    -0.0520     1.3870 h1         1 BGC       0.057700
     17 H6C1         3.1850    -0.9270     0.0990 h1         1 BGC       0.037700
     18 H6C2         2.6600    -0.0420    -1.3390 h1         1 BGC       0.037700
     19 H1          -0.7420     1.3570     1.4840 h2         1 BGC       0.029700
     20 HA          -0.3300     3.0730    -0.3370 ho         1 BGC       0.525000
     21 HB          -3.2640     1.3210     0.1960 ho         1 BGC       0.525000
     22 HC          -2.8010    -1.8820    -0.1980 ho         1 BGC       0.526000
     23 HD           0.2080    -3.1400     0.0760 ho         1 BGC       0.526000
     24 H6           4.3350     1.0850    -0.2410 ho         1 BGC       0.504000
@<TRIPOS>BOND
     1     1     2 1   
     2     1     6 1   
     3     1     8 1   
     4     1    13 1   
     5     2     3 1   
     6     2     9 1   
     7     2    14 1   
     8     3     4 1   
     9     3    10 1   
    10     3    15 1   
    11     4     5 1   
    12     4    11 1   
    13     4    16 1   
    14     5    12 1   
    15     5    17 1   
    16     5    18 1   
    17     6     7 1   
    18     6    11 1   
    19     6    19 1   
    20     7    20 1   
    21     8    21 1   
    22     9    22 1   
    23    10    23 1   
    24    12    24 1   
@<TRIPOS>SUBSTRUCTURE
     1 BGC         1 TEMP              0 ****  ****    0 ROOT
