@<TRIPOS>MOLECULE
BGD
   83    85     1     0     0
SMALL
No Charge or Current Charge


@<TRIPOS>ATOM
      1 C1          -0.5350    -0.8320     0.2450 c          1 BGD       0.599100
      2 O2          -0.4150     0.0010    -0.6470 o          1 BGD      -0.595100
      3 C3          -0.5070    -3.3320    -0.3110 c3         1 BGD      -0.066400
      4 C4          -1.2640    -4.6860    -0.3730 c3         1 BGD      -0.202400
      5 C5          -0.2830    -5.8370    -0.6570 c          1 BGD       0.714000
      6 O6          -0.0520    -6.1240    -1.8210 o          1 BGD      -0.755000
      7 O7           0.2550    -6.3840     0.2930 o          1 BGD      -0.755000
      8 C8          -3.7700    -2.2740    -0.7950 c          1 BGD       0.624700
      9 O9          -4.1520    -2.9350     0.1630 o          1 BGD      -0.639100
     10 C10         -4.7100    -1.8500    -1.9060 ca         1 BGD      -0.142600
     11 C11         -6.0510    -2.3010    -1.8880 ca         1 BGD      -0.063000
     12 C12         -4.2970    -1.0050    -2.9670 ca         1 BGD      -0.063000
     13 C13         -6.9510    -1.9260    -2.9010 ca         1 BGD      -0.119000
     14 C14         -5.2020    -0.6320    -3.9770 ca         1 BGD      -0.119000
     15 C15         -6.5270    -1.0920    -3.9460 ca         1 BGD      -0.116000
     16 N16         -2.4580    -1.8680    -0.9100 ns         1 BGD      -0.472900
     17 C17         -1.3900    -2.1180     0.0850 c3         1 BGD       0.026700
     18 N18          0.0620    -0.6780     1.4790 ns         1 BGD      -0.481900
     19 C19          0.6690     0.5830     1.9650 c3         1 BGD       0.031700
     20 C20          1.9300     0.2990     2.8290 c          1 BGD       0.601100
     21 O21          2.2410    -0.8250     3.2120 o          1 BGD      -0.643100
     22 C22         -0.3760     1.4340     2.7410 c3         1 BGD      -0.030100
     23 C23         -1.6970     1.5980     1.9930 ca         1 BGD      -0.128300
     24 C24         -2.7860     0.7510     2.2740 ca         1 BGD      -0.122500
     25 C25         -3.9870     0.8690     1.5530 ca         1 BGD      -0.080000
     26 C26         -1.8300     2.5740     0.9890 ca         1 BGD      -0.122500
     27 C27         -3.0310     2.6940     0.2690 ca         1 BGD      -0.080000
     28 C28         -4.1220     1.8390     0.5360 ca         1 BGD      -0.057300
     29 C29         -5.4280     1.9740    -0.2630 c3         1 BGD      -0.062700
     30 F30         -5.1620     2.2480    -1.5680 f          1 BGD      -0.163500
     31 F31         -6.1170     0.8020    -0.2770 f          1 BGD      -0.163500
     32 P32         -6.5780     3.3300     0.4120 p5         1 BGD       1.281500
     33 O33         -7.8340     3.3820    -0.3990 o          1 BGD      -0.910167
     34 O34         -6.9300     3.0350     1.8350 o          1 BGD      -0.910167
     35 O35         -5.8970     4.6590     0.3380 o          1 BGD      -0.910167
     36 N36          2.6790     1.4130     3.1490 ns         1 BGD      -0.468900
     37 C37          3.9930     1.3880     3.8340 c3         1 BGD       0.041700
     38 C38          5.1610     1.5130     2.8170 c3         1 BGD      -0.017100
     39 C39          5.0560     0.5340     1.6500 ca         1 BGD      -0.150300
     40 C40          4.5010     0.9430     0.4240 ca         1 BGD      -0.127500
     41 C41          4.3900     0.0370    -0.6450 ca         1 BGD      -0.068500
     42 C42          5.5040    -0.7910     1.7930 ca         1 BGD      -0.127500
     43 C43          5.3960    -1.6980     0.7240 ca         1 BGD      -0.068500
     44 C44          4.8330    -1.2960    -0.5060 ca         1 BGD      -0.033300
     45 C45          4.7140    -2.2870    -1.6740 c3         1 BGD      -0.056700
     46 F46          4.5150    -3.5520    -1.2190 f          1 BGD      -0.154000
     47 F47          3.6260    -2.0070    -2.4400 f          1 BGD      -0.154000
     48 P48          6.2480    -2.2890    -2.7910 p5         1 BGD       1.278500
     49 O49          6.0640    -3.2720    -3.9040 o          1 BGD      -0.909167
     50 O50          6.4550    -0.9270    -3.3730 o          1 BGD      -0.909167
     51 O51          7.4540    -2.6750    -1.9960 o          1 BGD      -0.909167
     52 C52          4.0620     2.4850     4.9370 c          1 BGD       0.588100
     53 O53          3.1770     3.3030     5.1410 o          1 BGD      -0.610100
     54 N54          5.1850     2.5170     5.6940 nt         1 BGD      -0.615000
     55 H31         -0.0360    -3.1350    -1.2830 hc         1 BGD       0.058200
     56 H32          0.3100    -3.4220     0.4160 hc         1 BGD       0.058200
     57 H41A        -1.7260    -4.8150     0.6130 hc         1 BGD       0.022700
     58 H42A        -1.9870    -4.5960    -1.1930 hc         1 BGD       0.022700
     59 H11         -6.4010    -2.9470    -1.0860 ha         1 BGD       0.133000
     60 H12         -3.2820    -0.6210    -3.0240 ha         1 BGD       0.133000
     61 H13         -7.9780    -2.2810    -2.8720 ha         1 BGD       0.110000
     62 H14         -4.8730     0.0180    -4.7840 ha         1 BGD       0.110000
     63 H15         -7.2240    -0.8000    -4.7280 ha         1 BGD       0.087000
     64 H16         -2.2270    -1.2940    -1.7100 hn         1 BGD       0.334500
     65 H17         -1.8520    -2.3160     1.0610 h1         1 BGD       0.071700
     66 H18         -0.0450    -1.4390     2.1390 hn         1 BGD       0.317500
     67 H19          1.0150     1.1630     1.1000 h1         1 BGD       0.106700
     68 H221        -0.5600     0.9620     3.7140 hc         1 BGD       0.041200
     69 H222         0.0500     2.4200     2.9620 hc         1 BGD       0.041200
     70 H24         -2.6990    -0.0120     3.0440 ha         1 BGD       0.080500
     71 H25         -4.8110     0.2010     1.7880 ha         1 BGD       0.134000
     72 H26         -0.9980     3.2330     0.7570 ha         1 BGD       0.080500
     73 H27         -3.1130     3.4550    -0.5040 ha         1 BGD       0.134000
     74 H36          2.3250     2.3080     2.8330 hn         1 BGD       0.340500
     75 H37          4.1010     0.4280     4.3530 h1         1 BGD       0.073700
     76 H381         5.1860     2.5410     2.4360 hc         1 BGD       0.034700
     77 H382         6.1140     1.3620     3.3380 hc         1 BGD       0.034700
     78 H40          4.1500     1.9640     0.2960 ha         1 BGD       0.072500
     79 H41          3.9620     0.3760    -1.5850 ha         1 BGD       0.133000
     80 H42          5.9350    -1.1220     2.7350 ha         1 BGD       0.072500
     81 H43          5.7540    -2.7160     0.8550 ha         1 BGD       0.133000
     82 H541         5.2710     3.2140     6.4180 hn         1 BGD       0.296500
     83 H542         5.9230     1.8470     5.5350 hn         1 BGD       0.296500
@<TRIPOS>BOND
     1     1     2 2   
     2     1    17 1   
     3     1    18 1   
     4     3     4 1   
     5     3    17 1   
     6     3    55 1   
     7     3    56 1   
     8     4     5 1   
     9     4    57 1   
    10     4    58 1   
    11     5     6 1   
    12     5     7 1   
    13     8     9 2   
    14     8    10 1   
    15     8    16 1   
    16    10    11 ar  
    17    10    12 ar  
    18    11    13 ar  
    19    11    59 1   
    20    12    14 ar  
    21    12    60 1   
    22    13    15 ar  
    23    13    61 1   
    24    14    15 ar  
    25    14    62 1   
    26    15    63 1   
    27    16    17 1   
    28    16    64 1   
    29    17    65 1   
    30    18    19 1   
    31    18    66 1   
    32    19    20 1   
    33    19    22 1   
    34    19    67 1   
    35    20    21 2   
    36    20    36 1   
    37    22    23 1   
    38    22    68 1   
    39    22    69 1   
    40    23    24 ar  
    41    23    26 ar  
    42    24    25 ar  
    43    24    70 1   
    44    25    28 ar  
    45    25    71 1   
    46    26    27 ar  
    47    26    72 1   
    48    27    28 ar  
    49    27    73 1   
    50    28    29 1   
    51    29    30 1   
    52    29    31 1   
    53    29    32 1   
    54    32    33 1   
    55    32    34 1   
    56    32    35 1   
    57    36    37 1   
    58    36    74 1   
    59    37    38 1   
    60    37    52 1   
    61    37    75 1   
    62    38    39 1   
    63    38    76 1   
    64    38    77 1   
    65    39    40 ar  
    66    39    42 ar  
    67    40    41 ar  
    68    40    78 1   
    69    41    44 ar  
    70    41    79 1   
    71    42    43 ar  
    72    42    80 1   
    73    43    44 ar  
    74    43    81 1   
    75    44    45 1   
    76    45    46 1   
    77    45    47 1   
    78    45    48 1   
    79    48    49 1   
    80    48    50 1   
    81    48    51 1   
    82    52    53 2   
    83    52    54 1   
    84    54    82 1   
    85    54    83 1   
@<TRIPOS>SUBSTRUCTURE
     1 BGD         1 TEMP              0 ****  ****    0 ROOT
