@<TRIPOS>MOLECULE
BGD
   83    85     1     0     0
SMALL
bcc


@<TRIPOS>ATOM
      1 C1          -1.0060    -1.4370     0.6000 c          1 BGD       0.666100
      2 O2          -0.7200    -0.9580    -0.4850 o          1 BGD      -0.595100
      3 C3          -1.1770    -3.9200     0.4270 c3         1 BGD      -0.066400
      4 C4          -2.0340    -5.1660     0.5660 c3         1 BGD      -0.202400
      5 C5          -1.2860    -6.4970     0.3710 c          1 BGD       0.924600
      6 O6          -0.0830    -6.4500     0.0470 o          1 BGD      -0.860300
      7 O7          -1.9640    -7.5310     0.5520 o          1 BGD      -0.860300
      8 C8          -4.3340    -2.5740     0.0770 c          1 BGD       0.691700
      9 O9          -4.7390    -3.0090     1.1470 o          1 BGD      -0.639100
     10 C10         -5.2830    -2.2000    -1.0150 ca         1 BGD      -0.142600
     11 C11         -6.4370    -2.9630    -1.1850 ca         1 BGD      -0.081000
     12 C12         -5.0690    -1.0890    -1.8260 ca         1 BGD      -0.081000
     13 C13         -7.3440    -2.6430    -2.1820 ca         1 BGD      -0.137000
     14 C14         -5.9900    -0.7570    -2.8100 ca         1 BGD      -0.137000
     15 C15         -7.1200    -1.5390    -2.9980 ca         1 BGD      -0.134000
     16 N16         -3.0350    -2.4100    -0.2200 ns         1 BGD      -0.539900
     17 C17         -1.9520    -2.6270     0.7090 c3         1 BGD       0.026700
     18 N18         -0.4940    -1.0140     1.7680 ns         1 BGD      -0.548900
     19 C19          0.3280     0.1580     1.8940 c3         1 BGD       0.031700
     20 C20          1.5250    -0.1330     2.7870 c          1 BGD       0.668100
     21 O21          1.4600    -0.9070     3.7280 o          1 BGD      -0.643100
     22 C22         -0.4750     1.3320     2.4930 c3         1 BGD      -0.030100
     23 C23         -1.6420     1.6870     1.6210 ca         1 BGD      -0.128300
     24 C24         -2.9000     1.1360     1.8340 ca         1 BGD      -0.140500
     25 C25         -3.9650     1.4300     0.9910 ca         1 BGD      -0.098000
     26 C26         -1.4770     2.5430     0.5340 ca         1 BGD      -0.140500
     27 C27         -2.5350     2.8430    -0.3060 ca         1 BGD      -0.098000
     28 C28         -3.7950     2.2870    -0.0890 ca         1 BGD      -0.057300
     29 C29         -4.9170     2.6580    -1.0070 c3         1 BGD       0.337700
     30 F30         -4.5050     2.3920    -2.3060 f          1 BGD      -0.284800
     31 F31         -5.9750     1.8000    -0.8000 f          1 BGD      -0.284800
     32 P32         -5.5320     4.4400    -0.8660 p5         1 BGD       1.123700
     33 O33         -6.6440     4.5180    -1.9090 o          1 BGD      -0.910167
     34 O34         -6.0010     4.5080     0.5840 o          1 BGD      -0.910167
     35 O35         -4.2960     5.2740    -1.1920 o          1 BGD      -0.910167
     36 N36          2.6310     0.5610     2.4840 ns         1 BGD      -0.535900
     37 C37          3.7760     0.5700     3.3530 c3         1 BGD       0.041700
     38 C38          4.9100     1.3890     2.7180 c3         1 BGD      -0.017100
     39 C39          5.3390     0.8240     1.3930 ca         1 BGD      -0.150300
     40 C40          4.9240     1.3980     0.1950 ca         1 BGD      -0.145500
     41 C41          5.2800     0.8430    -1.0260 ca         1 BGD      -0.086500
     42 C42          6.1370    -0.3160     1.3330 ca         1 BGD      -0.145500
     43 C43          6.4970    -0.8730     0.1160 ca         1 BGD      -0.086500
     44 C44          6.0560    -0.3110    -1.0790 ca         1 BGD      -0.033300
     45 C45          6.4500    -0.8900    -2.3990 c3         1 BGD       0.343700
     46 F46          6.6630    -2.2470    -2.2420 f          1 BGD      -0.275300
     47 F47          5.3640    -0.8110    -3.2520 f          1 BGD      -0.275300
     48 P48          7.9610    -0.0820    -3.1890 p5         1 BGD       1.120700
     49 O49          8.1630    -0.8720    -4.4800 o          1 BGD      -0.909167
     50 O50          7.5050     1.3610    -3.3840 o          1 BGD      -0.909167
     51 O51          9.0370    -0.2910    -2.1290 o          1 BGD      -0.909167
     52 C52          3.4090     1.1800     4.7100 c          1 BGD       0.655100
     53 O53          2.5660     2.0560     4.8070 o          1 BGD      -0.610100
     54 N54          4.1260     0.7100     5.7370 nt         1 BGD      -0.682000
     55 H31         -0.7460    -3.8650    -0.5760 hc         1 BGD       0.058200
     56 H32         -0.3370    -3.9670     1.1230 hc         1 BGD       0.058200
     57 H41A        -2.5170    -5.1780     1.5490 hc         1 BGD       0.022700
     58 H42A        -2.8560    -5.1370    -0.1560 hc         1 BGD       0.022700
     59 H11         -6.6160    -3.8160    -0.5440 ha         1 BGD       0.151000
     60 H12         -4.2030    -0.4560    -1.6790 ha         1 BGD       0.151000
     61 H13         -8.2280    -3.2500    -2.3200 ha         1 BGD       0.128000
     62 H14         -5.8280     0.1200    -3.4200 ha         1 BGD       0.128000
     63 H15         -7.8340    -1.2830    -3.7690 ha         1 BGD       0.105000
     64 H16         -2.7780    -2.1100    -1.1470 hn         1 BGD       0.334500
     65 H17         -2.3840    -2.6780     1.7100 h1         1 BGD       0.071700
     66 H18         -0.8230    -1.4380     2.6220 hn         1 BGD       0.317500
     67 H19          0.6680     0.4340     0.8950 h1         1 BGD       0.106700
     68 H221        -0.8140     1.0500     3.4940 hc         1 BGD       0.041200
     69 H222         0.1910     2.1890     2.6150 hc         1 BGD       0.041200
     70 H24         -3.0570     0.4630     2.6690 ha         1 BGD       0.098500
     71 H25         -4.9280     0.9830     1.1930 ha         1 BGD       0.152000
     72 H26         -0.5060     2.9870     0.3450 ha         1 BGD       0.098500
     73 H27         -2.3890     3.5350    -1.1230 ha         1 BGD       0.152000
     74 H36          2.5970     1.2240     1.7260 hn         1 BGD       0.340500
     75 H37          4.1250    -0.4570     3.4980 h1         1 BGD       0.073700
     76 H381         4.5820     2.4250     2.6010 hc         1 BGD       0.034700
     77 H382         5.7510     1.4010     3.4140 hc         1 BGD       0.034700
     78 H40          4.3190     2.2980     0.2100 ha         1 BGD       0.090500
     79 H41          4.9470     1.3170    -1.9380 ha         1 BGD       0.151000
     80 H42          6.4860    -0.7760     2.2510 ha         1 BGD       0.090500
     81 H43          7.1220    -1.7550     0.1090 ha         1 BGD       0.151000
     82 H541         4.0090     1.0900     6.6620 hn         1 BGD       0.296500
     83 H542         4.7840    -0.0430     5.6280 hn         1 BGD       0.296500
@<TRIPOS>BOND
     1     1     2 2   
     2     1    17 1   
     3     1    18 1   
     4     3     4 1   
     5     3    17 1   
     6     3    55 1   
     7     3    56 1   
     8     4     5 1   
     9     4    57 1   
    10     4    58 1   
    11     5     6 1   
    12     5     7 1   
    13     8     9 2   
    14     8    10 1   
    15     8    16 1   
    16    10    11 ar  
    17    10    12 ar  
    18    11    13 ar  
    19    11    59 1   
    20    12    14 ar  
    21    12    60 1   
    22    13    15 ar  
    23    13    61 1   
    24    14    15 ar  
    25    14    62 1   
    26    15    63 1   
    27    16    17 1   
    28    16    64 1   
    29    17    65 1   
    30    18    19 1   
    31    18    66 1   
    32    19    20 1   
    33    19    22 1   
    34    19    67 1   
    35    20    21 2   
    36    20    36 1   
    37    22    23 1   
    38    22    68 1   
    39    22    69 1   
    40    23    24 ar  
    41    23    26 ar  
    42    24    25 ar  
    43    24    70 1   
    44    25    28 ar  
    45    25    71 1   
    46    26    27 ar  
    47    26    72 1   
    48    27    28 ar  
    49    27    73 1   
    50    28    29 1   
    51    29    30 1   
    52    29    31 1   
    53    29    32 1   
    54    32    33 1   
    55    32    34 1   
    56    32    35 1   
    57    36    37 1   
    58    36    74 1   
    59    37    38 1   
    60    37    52 1   
    61    37    75 1   
    62    38    39 1   
    63    38    76 1   
    64    38    77 1   
    65    39    40 ar  
    66    39    42 ar  
    67    40    41 ar  
    68    40    78 1   
    69    41    44 ar  
    70    41    79 1   
    71    42    43 ar  
    72    42    80 1   
    73    43    44 ar  
    74    43    81 1   
    75    44    45 1   
    76    45    46 1   
    77    45    47 1   
    78    45    48 1   
    79    48    49 1   
    80    48    50 1   
    81    48    51 1   
    82    52    53 2   
    83    52    54 1   
    84    54    82 1   
    85    54    83 1   
@<TRIPOS>SUBSTRUCTURE
     1 BGD         1 TEMP              0 ****  ****    0 ROOT
