@<TRIPOS>MOLECULE
BGE
   46    49     1     0     0
SMALL
abcg2


@<TRIPOS>ATOM
      1 C15         -1.4640     0.7280    -0.1040 ca         1 BGE      -0.129000
      2 C17         -3.7040    -0.2150     0.0980 ca         1 BGE       0.251000
      3 C21         -5.6540     1.2400     0.0320 c6         1 BGE       0.153800
      4 C22         -7.1330     1.2090     0.3690 c6         1 BGE       0.149100
      5 C24         -7.3180    -0.9870    -0.3480 c6         1 BGE       0.149100
      6 C01          3.7750     1.6330    -0.2850 ca         1 BGE      -0.207000
      7 C02          2.4820     2.0970    -0.3570 ca         1 BGE       0.386900
      8 N03          1.3960     1.3400    -0.2140 nb         1 BGE      -0.737000
      9 C04          1.5740     0.0450     0.0180 ca         1 BGE       0.630900
     10 C05          2.8530    -0.5300     0.1210 ca         1 BGE      -0.248000
     11 C06          3.9760     0.2660    -0.0340 ca         1 BGE       0.088000
     12 C07          5.3140    -0.2950     0.0530 cc         1 BGE      -0.177000
     13 N08          5.5790    -1.6250    -0.1640 na         1 BGE      -0.290500
     14 C09          6.8920    -1.8180     0.0180 cc         1 BGE       0.405400
     15 N10          7.5000    -0.7060     0.3520 nd         1 BGE      -0.680000
     16 C11          6.5360     0.2590     0.3780 cd         1 BGE       0.289300
     17 C12          6.8680     1.6640     0.7480 c3         1 BGE      -0.117400
     18 N13          0.4920    -0.7750     0.1690 nu         1 BGE      -0.940900
     19 C14         -0.8760    -0.5120     0.1310 ca         1 BGE       0.288000
     20 C16         -2.8490     0.8620    -0.1270 ca         1 BGE      -0.123500
     21 C18         -3.1010    -1.4570     0.3410 ca         1 BGE      -0.123500
     22 C19         -1.7310    -1.6010     0.3500 ca         1 BGE      -0.129000
     23 N20         -5.1000    -0.0960     0.1260 nh         1 BGE      -0.774400
     24 O23         -7.8450     0.3160    -0.4570 os         1 BGE      -0.447000
     25 C25         -5.8460    -1.0310    -0.7070 c6         1 BGE       0.153800
     26 H1          -0.8510     1.5950    -0.2810 ha         1 BGE       0.127500
     27 H2          -5.5090     1.6750    -0.9700 h1         1 BGE       0.045950
     28 H3          -5.1580     1.8970     0.7490 h1         1 BGE       0.045950
     29 H4          -7.2550     0.9340     1.4260 h1         1 BGE       0.051950
     30 H5          -7.5620     2.2020     0.2270 h1         1 BGE       0.051950
     31 H6          -7.4530    -1.3710     0.6740 h1         1 BGE       0.051950
     32 H7          -7.8830    -1.6280    -1.0260 h1         1 BGE       0.051950
     33 H9           2.2990     3.1490    -0.5510 h4         1 BGE       0.019100
     34 H10          2.9410    -1.5880     0.3380 ha         1 BGE       0.109000
     35 H11          4.9200    -2.3300    -0.4550 hn         1 BGE       0.354000
     36 H12          7.3570    -2.7830    -0.1100 h5         1 BGE       0.057100
     37 H14          6.9780     2.3040    -0.1300 hc         1 BGE       0.048367
     38 H15          6.1030     2.1130     1.3820 hc         1 BGE       0.048367
     39 H16          7.8130     1.6910     1.2900 hc         1 BGE       0.048367
     40 H17          0.7200    -1.7400     0.3480 hn         1 BGE       0.490000
     41 H18         -3.2470     1.8470    -0.3360 ha         1 BGE       0.114000
     42 H19         -3.7110    -2.3290     0.5440 ha         1 BGE       0.114000
     43 H20         -1.3110    -2.5810     0.5480 ha         1 BGE       0.127500
     44 H21         -5.4910    -2.0490    -0.5510 h1         1 BGE       0.045950
     45 H22         -5.7150    -0.7960    -1.7750 h1         1 BGE       0.045950
     46 H8           4.5980     2.3120    -0.4470 ha         1 BGE       0.132000
@<TRIPOS>BOND
     1     1    19 ar  
     2     1    20 ar  
     3     1    26 1   
     4     2    20 ar  
     5     2    21 ar  
     6     2    23 1   
     7     3     4 1   
     8     3    23 1   
     9     3    27 1   
    10     3    28 1   
    11     4    24 1   
    12     4    29 1   
    13     4    30 1   
    14     5    24 1   
    15     5    25 1   
    16     5    31 1   
    17     5    32 1   
    18     6     7 ar  
    19     6    11 ar  
    20     6    46 1   
    21     7     8 ar  
    22     7    33 1   
    23     8     9 ar  
    24     9    10 ar  
    25     9    18 1   
    26    10    11 ar  
    27    10    34 1   
    28    11    12 1   
    29    12    13 1   
    30    12    16 2   
    31    13    14 1   
    32    13    35 1   
    33    14    15 2   
    34    14    36 1   
    35    15    16 1   
    36    16    17 1   
    37    17    37 1   
    38    17    38 1   
    39    17    39 1   
    40    18    19 1   
    41    18    40 1   
    42    19    22 ar  
    43    20    41 1   
    44    21    22 ar  
    45    21    42 1   
    46    22    43 1   
    47    23    25 1   
    48    25    44 1   
    49    25    45 1   
@<TRIPOS>SUBSTRUCTURE
     1 BGE         1 TEMP              0 ****  ****    0 ROOT
