@<TRIPOS>MOLECULE
BGE
   46    49     1     0     0
SMALL
No Charge or Current Charge


@<TRIPOS>ATOM
      1 C15         -1.4100     0.5360    -0.6200 ca         1 BGE      -0.129000
      2 C17         -3.6710    -0.1990    -0.0310 ca         1 BGE       0.251000
      3 C21         -5.7060     1.3030    -0.3010 c6         1 BGE       0.153800
      4 C22         -7.1870     1.3510     0.1820 c6         1 BGE       0.149100
      5 C24         -7.4200    -1.0340    -0.0270 c6         1 BGE       0.149100
      6 C01          3.8250     1.6980     0.0010 ca         1 BGE      -0.207000
      7 C02          2.5140     2.1790     0.1340 ca         1 BGE       0.386900
      8 N03          1.4360     1.3700     0.1910 nb         1 BGE      -0.737000
      9 C04          1.6480     0.0560     0.0970 ca         1 BGE       0.630900
     10 C05          2.9180    -0.5180    -0.0250 ca         1 BGE      -0.248000
     11 C06          4.0470     0.3140    -0.0680 ca         1 BGE       0.088000
     12 C07          5.3840    -0.2630    -0.2190 cc         1 BGE      -0.177000
     13 N08          5.7370    -1.4040    -0.9010 na         1 BGE      -0.290500
     14 C09          7.0850    -1.5920    -0.7100 cc         1 BGE       0.405400
     15 N10          7.5780    -0.6560     0.0930 nd         1 BGE      -0.680000
     16 C11          6.5220     0.1720     0.4220 cd         1 BGE       0.289300
     17 C12          6.7110     1.3150     1.3830 c3         1 BGE      -0.117400
     18 N13          0.5320    -0.7480     0.1870 nu         1 BGE      -0.940900
     19 C14         -0.8480    -0.5290     0.1120 ca         1 BGE       0.288000
     20 C16         -2.8060     0.7030    -0.6850 ca         1 BGE      -0.123500
     21 C18         -3.1060    -1.2700     0.6870 ca         1 BGE      -0.123500
     22 C19         -1.7090    -1.4360     0.7520 ca         1 BGE      -0.129000
     23 N20         -5.0790    -0.0440    -0.0860 nh         1 BGE      -0.774400
     24 O23         -7.9500     0.2620    -0.3890 os         1 BGE      -0.447000
     25 C25         -5.9480    -1.1890    -0.5190 c6         1 BGE       0.153800
     26 H1          -0.7710     1.2300    -1.1550 ha         1 BGE       0.127500
     27 H2          -5.6750     1.5640    -1.3690 h1         1 BGE       0.045950
     28 H3          -5.1420     2.0750     0.2420 h1         1 BGE       0.045950
     29 H4          -7.2240     1.2810     1.2790 h1         1 BGE       0.051950
     30 H5          -7.6440     2.3060    -0.1130 h1         1 BGE       0.051950
     31 H6          -7.4610    -1.1490     1.0660 h1         1 BGE       0.051950
     32 H7          -8.0460    -1.8180    -0.4750 h1         1 BGE       0.051950
     33 H9           2.3210     3.2490     0.1930 h4         1 BGE       0.019100
     34 H10          3.0250    -1.5960    -0.0780 ha         1 BGE       0.109000
     35 H11          5.1370    -1.9980    -1.4600 hn         1 BGE       0.354000
     36 H12          7.6300    -2.4150    -1.1590 h5         1 BGE       0.057100
     37 H14          6.8750     2.2560     0.8450 hc         1 BGE       0.048367
     38 H15          5.8360     1.4370     2.0310 hc         1 BGE       0.048367
     39 H16          7.5790     1.1480     2.0320 hc         1 BGE       0.048367
     40 H17          0.7830    -1.7040     0.4200 hn         1 BGE       0.490000
     41 H18         -3.2090     1.5290    -1.2640 ha         1 BGE       0.114000
     42 H19         -3.7490    -1.9720     1.2090 ha         1 BGE       0.114000
     43 H20         -1.2980    -2.2700     1.3150 ha         1 BGE       0.127500
     44 H21         -5.5590    -2.1440    -0.1380 h1         1 BGE       0.045950
     45 H22         -5.9500    -1.2570    -1.6160 h1         1 BGE       0.045950
     46 H8           4.6440     2.4060    -0.0650 ha         1 BGE       0.132000
@<TRIPOS>BOND
     1     1    19 ar  
     2     1    20 ar  
     3     1    26 1   
     4     2    20 ar  
     5     2    21 ar  
     6     2    23 1   
     7     3     4 1   
     8     3    23 1   
     9     3    27 1   
    10     3    28 1   
    11     4    24 1   
    12     4    29 1   
    13     4    30 1   
    14     5    24 1   
    15     5    25 1   
    16     5    31 1   
    17     5    32 1   
    18     6     7 ar  
    19     6    11 ar  
    20     6    46 1   
    21     7     8 ar  
    22     7    33 1   
    23     8     9 ar  
    24     9    10 ar  
    25     9    18 1   
    26    10    11 ar  
    27    10    34 1   
    28    11    12 1   
    29    12    13 1   
    30    12    16 2   
    31    13    14 1   
    32    13    35 1   
    33    14    15 2   
    34    14    36 1   
    35    15    16 1   
    36    16    17 1   
    37    17    37 1   
    38    17    38 1   
    39    17    39 1   
    40    18    19 1   
    41    18    40 1   
    42    19    22 ar  
    43    20    41 1   
    44    21    22 ar  
    45    21    42 1   
    46    22    43 1   
    47    23    25 1   
    48    25    44 1   
    49    25    45 1   
@<TRIPOS>SUBSTRUCTURE
     1 BGE         1 TEMP              0 ****  ****    0 ROOT
