@<TRIPOS>MOLECULE
BGF
   41    43     1     0     0
SMALL
bcc


@<TRIPOS>ATOM
      1 CA           1.1070    -1.3390    -0.0060 cc         1 BGF       0.173700
      2 CB           0.7200    -2.6490    -0.0080 cc         1 BGF      -0.205300
      3 C9          -0.6940    -2.6470     0.0010 cd         1 BGF      -0.205300
      4 C8          -1.0790    -1.3370     0.0100 cd         1 BGF       0.173700
      5 O1           0.0150    -0.5500     0.0060 os         1 BGF      -0.321800
      6 C1           2.4050    -0.6980    -0.0280 cd         1 BGF       0.062000
      7 C2           2.5310     0.6910    -0.1220 cd         1 BGF      -0.106000
      8 C3           3.7800     1.2810    -0.1590 cc         1 BGF      -0.071000
      9 C4           4.9300     0.4980    -0.0910 cc         1 BGF      -0.174000
     10 C5           4.8120    -0.8880     0.0160 cc         1 BGF      -0.071000
     11 C6           3.5650    -1.4770     0.0410 cd         1 BGF      -0.106000
     12 C7           6.2570     1.1250    -0.1390 c2         1 BGF       0.508000
     13 N1           6.4410     2.1770    -0.9000 nv         1 BGF      -0.802850
     14 N2           7.2330     0.6200     0.5770 nv         1 BGF      -0.802850
     15 C10         -2.3750    -0.6930     0.0380 cc         1 BGF       0.062000
     16 C11         -2.4980     0.6950     0.1500 cc         1 BGF      -0.106000
     17 C12         -3.7450     1.2870     0.1960 cd         1 BGF      -0.071000
     18 C13         -4.8970     0.5070     0.1190 cd         1 BGF      -0.174000
     19 C14         -4.7830    -0.8770    -0.0070 cd         1 BGF      -0.071000
     20 C15         -3.5370    -1.4680    -0.0410 cc         1 BGF      -0.106000
     21 C16         -6.2230     1.1360     0.1770 c2         1 BGF       0.508000
     22 N3          -7.1990     0.6470    -0.5490 nv         1 BGF      -0.802850
     23 N4          -6.4060     2.1740     0.9580 nv         1 BGF      -0.802850
     24 HB           1.3640    -3.5130    -0.0200 ha         1 BGF       0.181000
     25 H4          -1.3400    -3.5100     0.0060 ha         1 BGF       0.181000
     26 H2           1.6570     1.3260    -0.1670 ha         1 BGF       0.166000
     27 H3           3.8480     2.3590    -0.2170 ha         1 BGF       0.150000
     28 H5           5.6910    -1.5190     0.0530 ha         1 BGF       0.150000
     29 H6           3.4970    -2.5540     0.1110 ha         1 BGF       0.166000
     30 HN11         5.7290     2.4760    -1.5470 hn         1 BGF       0.485800
     31 HN12         7.3220     2.6670    -0.9340 hn         1 BGF       0.485800
     32 HN21         8.1750     0.9770     0.5260 hn         1 BGF       0.485800
     33 HN22         7.0570    -0.1050     1.2520 hn         1 BGF       0.485800
     34 H7          -1.6220     1.3270     0.2040 ha         1 BGF       0.166000
     35 H8          -3.8110     2.3640     0.2690 ha         1 BGF       0.150000
     36 H9          -5.6620    -1.5060    -0.0510 ha         1 BGF       0.150000
     37 H10         -3.4710    -2.5440    -0.1270 ha         1 BGF       0.166000
     38 H1'1        -7.0210    -0.0600    -1.2430 hn         1 BGF       0.485800
     39 H1'2        -8.1400     1.0070    -0.4960 hn         1 BGF       0.485800
     40 H2'1        -7.2870     2.6640     1.0010 hn         1 BGF       0.485800
     41 H2'2        -5.6960     2.4570     1.6130 hn         1 BGF       0.485800
@<TRIPOS>BOND
     1     1     2 1   
     2     1     5 1   
     3     1     6 2   
     4     2     3 2   
     5     2    24 1   
     6     3     4 1   
     7     3    25 1   
     8     4     5 1   
     9     4    15 2   
    10     6     7 1   
    11     6    11 1   
    12     7     8 2   
    13     7    26 1   
    14     8     9 1   
    15     8    27 1   
    16     9    10 1   
    17     9    12 2   
    18    10    11 2   
    19    10    28 1   
    20    11    29 1   
    21    12    13 1   
    22    12    14 1   
    23    13    30 1   
    24    13    31 1   
    25    14    32 1   
    26    14    33 1   
    27    15    16 1   
    28    15    20 1   
    29    16    17 2   
    30    16    34 1   
    31    17    18 1   
    32    17    35 1   
    33    18    19 1   
    34    18    21 2   
    35    19    20 2   
    36    19    36 1   
    37    20    37 1   
    38    21    22 1   
    39    21    23 1   
    40    22    38 1   
    41    22    39 1   
    42    23    40 1   
    43    23    41 1   
@<TRIPOS>SUBSTRUCTURE
     1 BGF         1 TEMP              0 ****  ****    0 ROOT
