@<TRIPOS>MOLECULE
BGF
   41    43     1     0     0
SMALL
No Charge or Current Charge


@<TRIPOS>ATOM
      1 CA           1.1310    -1.1790    -0.0200 cc         1 BGF       0.064000
      2 CB           0.6920    -2.5390    -0.0190 cc         1 BGF      -0.122000
      3 C9          -0.6850    -2.5290     0.0090 cd         1 BGF      -0.122000
      4 C8          -1.0640    -1.1410     0.0250 cd         1 BGF       0.064000
      5 O1           0.0490    -0.3540     0.0070 os         1 BGF      -0.233000
      6 C1           2.4150    -0.6430    -0.0420 cd         1 BGF       0.062000
      7 C2           2.5800     0.7880    -0.0390 cd         1 BGF      -0.156000
      8 C3           3.8600     1.3070    -0.0610 cc         1 BGF      -0.121000
      9 C4           5.0230     0.4460    -0.0820 cc         1 BGF      -0.174000
     10 C5           4.8140    -0.9860    -0.0940 cc         1 BGF      -0.121000
     11 C6           3.5460    -1.5320    -0.0720 cd         1 BGF      -0.156000
     12 C7           6.2870     0.9700    -0.1020 c2         1 BGF       0.508000
     13 N1           6.6250     2.2710    -0.1020 nv         1 BGF      -0.913250
     14 N2           7.4420     0.2910    -0.1100 nv         1 BGF      -0.913250
     15 C10         -2.3570    -0.6310     0.0530 cc         1 BGF       0.062000
     16 C11         -2.5550     0.7880     0.0670 cc         1 BGF      -0.156000
     17 C12         -3.8240     1.3310     0.0950 cd         1 BGF      -0.121000
     18 C13         -4.9920     0.4670     0.1050 cd         1 BGF      -0.174000
     19 C14         -4.7820    -0.9700     0.1010 cd         1 BGF      -0.121000
     20 C15         -3.5030    -1.4910     0.0740 cc         1 BGF      -0.156000
     21 C16         -6.2580     0.9910     0.1300 c2         1 BGF       0.508000
     22 N3          -7.4190     0.3230     0.1320 nv         1 BGF      -0.913250
     23 N4          -6.6100     2.2880     0.1400 nv         1 BGF      -0.913250
     24 HB           1.3260    -3.4190    -0.0360 ha         1 BGF       0.163000
     25 H4          -1.3280    -3.4020     0.0170 ha         1 BGF       0.163000
     26 H2           1.7240     1.4570    -0.0210 ha         1 BGF       0.216000
     27 H3           3.9800     2.3880    -0.0660 ha         1 BGF       0.200000
     28 H5           5.6690    -1.6570    -0.1310 ha         1 BGF       0.200000
     29 H6           3.4250    -2.6100    -0.0820 ha         1 BGF       0.216000
     30 HN11         6.1070     2.8170     0.5800 hn         1 BGF       0.541000
     31 HN12         6.5510     2.7000    -1.0200 hn         1 BGF       0.541000
     32 HN21         8.2300     0.9100     0.0370 hn         1 BGF       0.541000
     33 HN22         7.4660    -0.5160     0.5020 hn         1 BGF       0.541000
     34 H7          -1.6880     1.4440     0.0570 ha         1 BGF       0.216000
     35 H8          -3.9210     2.4140     0.1120 ha         1 BGF       0.200000
     36 H9          -5.6210    -1.6610     0.1290 ha         1 BGF       0.200000
     37 H10         -3.3710    -2.5680     0.0710 ha         1 BGF       0.216000
     38 H1'1        -7.4220    -0.5090    -0.4470 hn         1 BGF       0.541000
     39 H1'2        -8.2050     0.9310    -0.0620 hn         1 BGF       0.541000
     40 H2'1        -6.6680     2.6660     1.0810 hn         1 BGF       0.541000
     41 H2'2        -6.0220     2.8790    -0.4400 hn         1 BGF       0.541000
@<TRIPOS>BOND
     1     1     2 1   
     2     1     5 1   
     3     1     6 2   
     4     2     3 2   
     5     2    24 1   
     6     3     4 1   
     7     3    25 1   
     8     4     5 1   
     9     4    15 2   
    10     6     7 1   
    11     6    11 1   
    12     7     8 2   
    13     7    26 1   
    14     8     9 1   
    15     8    27 1   
    16     9    10 1   
    17     9    12 2   
    18    10    11 2   
    19    10    28 1   
    20    11    29 1   
    21    12    13 1   
    22    12    14 1   
    23    13    30 1   
    24    13    31 1   
    25    14    32 1   
    26    14    33 1   
    27    15    16 1   
    28    15    20 1   
    29    16    17 2   
    30    16    34 1   
    31    17    18 1   
    32    17    35 1   
    33    18    19 1   
    34    18    21 2   
    35    19    20 2   
    36    19    36 1   
    37    20    37 1   
    38    21    22 1   
    39    21    23 1   
    40    22    38 1   
    41    22    39 1   
    42    23    40 1   
    43    23    41 1   
@<TRIPOS>SUBSTRUCTURE
     1 BGF         1 TEMP              0 ****  ****    0 ROOT
