@<TRIPOS>MOLECULE
BGG
   18    18     1     0     0
SMALL
bcc


@<TRIPOS>ATOM
      1 C1          -1.4790    -1.1390     0.0950 ca         1 BGG      -0.115500
      2 C2          -2.8000    -1.1960    -0.3230 ca         1 BGG      -0.144000
      3 C3          -3.5460    -0.0280    -0.4370 ca         1 BGG      -0.152000
      4 C4          -2.9620     1.1930    -0.1300 ca         1 BGG      -0.144000
      5 C5          -1.6370     1.2440     0.2870 ca         1 BGG      -0.115500
      6 C6          -0.8820     0.0820     0.4060 ca         1 BGG      -0.051300
      7 C7           0.5590     0.1320     0.8300 c3         1 BGG       0.214700
      8 O12          1.3460    -0.1040    -0.3220 os         1 BGG      -0.513900
      9 C14          2.7240    -0.1790    -0.1530 c          1 BGG       0.501100
     10 O15          3.1710    -0.0290     0.9910 o          1 BGG      -0.560500
     11 O16          3.3210    -0.3920    -1.2140 o          1 BGG      -0.560500
     12 H1          -0.9060    -2.0540     0.1860 ha         1 BGG       0.132000
     13 H2          -3.2520    -2.1510    -0.5570 ha         1 BGG       0.112000
     14 H3          -4.5780    -0.0710    -0.7620 ha         1 BGG       0.109000
     15 H4          -3.5350     2.1070    -0.2170 ha         1 BGG       0.112000
     16 H5          -1.1880     2.2010     0.5250 ha         1 BGG       0.132000
     17 H71          0.7820     1.1060     1.2760 h1         1 BGG       0.023200
     18 H72          0.7450    -0.6250     1.5980 h1         1 BGG       0.023200
@<TRIPOS>BOND
     1     1     2 ar  
     2     1     6 ar  
     3     1    12 1   
     4     2     3 ar  
     5     2    13 1   
     6     3     4 ar  
     7     3    14 1   
     8     4     5 ar  
     9     4    15 1   
    10     5     6 ar  
    11     5    16 1   
    12     6     7 1   
    13     7     8 1   
    14     7    17 1   
    15     7    18 1   
    16     8     9 1   
    17     9    10 1   
    18     9    11 1   
@<TRIPOS>SUBSTRUCTURE
     1 BGG         1 TEMP              0 ****  ****    0 ROOT
