@<TRIPOS>MOLECULE
BGG
   18    18     1     0     0
SMALL
No Charge or Current Charge


@<TRIPOS>ATOM
      1 C1          -1.5690    -1.2130     0.1750 ca         1 BGG      -0.097500
      2 C2          -2.9150    -1.2110    -0.2330 ca         1 BGG      -0.126000
      3 C3          -3.5890     0.0050    -0.4290 ca         1 BGG      -0.134000
      4 C4          -2.9170     1.2210    -0.2190 ca         1 BGG      -0.126000
      5 C5          -1.5720     1.2200     0.1890 ca         1 BGG      -0.097500
      6 C6          -0.8890     0.0030     0.3890 ca         1 BGG      -0.051300
      7 C7           0.5680     0.0020     0.8360 c3         1 BGG       0.237900
      8 O12          1.4130     0.0110    -0.3300 os         1 BGG      -0.537100
      9 C14          2.7650     0.0120    -0.1590 c          1 BGG       0.821100
     10 O15          3.2400     0.0050     0.9650 o          1 BGG      -0.720500
     11 O16          3.4440     0.0200    -1.1700 o          1 BGG      -0.720500
     12 H1          -1.0530    -2.1590     0.3230 ha         1 BGG       0.114000
     13 H2          -3.4340    -2.1530    -0.3960 ha         1 BGG       0.094000
     14 H3          -4.6300     0.0060    -0.7440 ha         1 BGG       0.091000
     15 H4          -3.4380     2.1630    -0.3710 ha         1 BGG       0.094000
     16 H5          -1.0570     2.1650     0.3480 ha         1 BGG       0.114000
     17 H71          0.7560     0.8870     1.4590 h1         1 BGG       0.023200
     18 H72          0.7590    -0.8910     1.4470 h1         1 BGG       0.023200
@<TRIPOS>BOND
     1     1     2 ar  
     2     1     6 ar  
     3     1    12 1   
     4     2     3 ar  
     5     2    13 1   
     6     3     4 ar  
     7     3    14 1   
     8     4     5 ar  
     9     4    15 1   
    10     5     6 ar  
    11     5    16 1   
    12     6     7 1   
    13     7     8 1   
    14     7    17 1   
    15     7    18 1   
    16     8     9 1   
    17     9    10 1   
    18     9    11 1   
@<TRIPOS>SUBSTRUCTURE
     1 BGG         1 TEMP              0 ****  ****    0 ROOT
