@<TRIPOS>MOLECULE
BGI
   59    61     1     0     0
SMALL
No Charge or Current Charge


@<TRIPOS>ATOM
      1 C13        141.3350   121.5280    96.4490 c          1 BGI       0.585100
      2 C17        140.9600   120.3140    93.1880 c5         1 BGI       0.136300
      3 C20        138.9760   120.4420    91.9150 c5         1 BGI       0.336700
      4 C24        136.0850   118.3710    93.1390 cc         1 BGI      -0.411200
      5 C28        136.6870   120.0900    91.0240 c          1 BGI       0.622000
      6 C01        141.2320   121.9050    99.6480 c3         1 BGI      -0.087100
      7 C02        142.4450   121.4400    98.7920 c3         1 BGI      -0.033700
      8 C03        143.7990   121.5910    99.5630 c3         1 BGI       0.119000
      9 C04        143.7740   120.9670   100.9740 ca         1 BGI       0.273300
     10 C06        144.0070   121.2840   103.2680 ca         1 BGI       0.244900
     11 C07        143.7530   119.9180   103.5400 ca         1 BGI       0.083100
     12 C08        143.5060   119.0560   102.4610 ca         1 BGI      -0.114000
     13 C09        143.5200   119.5900   101.1590 ca         1 BGI      -0.097000
     14 C12        142.4710   122.1130    97.3760 c3         1 BGI       0.092500
     15 C16        140.8740   119.7790    94.6460 c3         1 BGI      -0.065300
     16 C18        140.5490   121.8200    93.0020 c5         1 BGI       0.091300
     17 C19        139.0080   121.6670    92.8900 c5         1 BGI       0.127300
     18 C23        137.3430   118.9250    93.0670 cd         1 BGI       0.027600
     19 C25        135.0560   118.6610    92.1480 c          1 BGI       0.593200
     20 C32        141.1990   118.2610    94.6860 c          1 BGI       0.729000
     21 N05        144.0210   121.8030   102.0160 nb         1 BGI      -0.637000
     22 N15        141.7430   120.5050    95.6130 ns         1 BGI      -0.476900
     23 N22        137.6400   119.7990    92.0190 n          1 BGI      -0.312000
     24 N27        135.4680   119.5040    91.1690 ns         1 BGI      -0.475500
     25 N35        142.5390   123.6170    97.4690 n8         1 BGI      -0.996200
     26 O10        143.7460   119.4230   104.8200 oh         1 BGI      -0.529100
     27 O11        144.8700   121.0150    98.7850 oh         1 BGI      -0.666000
     28 O14        140.1890   121.9630    96.4160 o          1 BGI      -0.636100
     29 O21        140.0290   119.5590    92.3690 os         1 BGI      -0.423000
     30 O26        133.9300   118.1960    92.1740 o          1 BGI      -0.564000
     31 O29        136.9100   120.8190    90.0710 o          1 BGI      -0.568000
     32 O30        138.4280   122.8710    92.3660 oh         1 BGI      -0.686000
     33 O31        141.0890   122.4090    91.8010 oh         1 BGI      -0.707000
     34 H171       141.9800   120.1370    92.8190 h1         1 BGI       0.078700
     35 H201       139.1610   120.7460    90.8760 h2         1 BGI       0.112700
     36 H011       141.1380   121.3080   100.5620 hc         1 BGI       0.047033
     37 H013       141.3350   122.9570    99.9400 hc         1 BGI       0.047033
     38 H012       140.2910   121.7950    99.0970 hc         1 BGI       0.047033
     39 H021       142.3050   120.3650    98.6180 hc         1 BGI       0.065700
     40 H031       143.9820   122.6670    99.6870 h1         1 BGI       0.067700
     41 H061       144.2060   121.9850   104.0780 h4         1 BGI       0.011100
     42 H081       143.3110   117.9990   102.6260 ha         1 BGI       0.134000
     43 H091       143.3410   118.9470   100.3020 ha         1 BGI       0.143000
     44 H121       143.4060   121.8100    96.8850 h1         1 BGI       0.037700
     45 H161       139.8380   119.8810    94.9870 h1         1 BGI       0.068700
     46 H181       140.8240   122.4280    93.8750 h1         1 BGI       0.065700
     47 H191       138.5610   121.4140    93.8610 h1         1 BGI       0.059700
     48 H231       138.1530   118.7330    93.7710 h4         1 BGI       0.271000
     49 H151       142.7070   120.1980    95.7080 hn         1 BGI       0.332500
     50 H271       134.7880   119.7210    90.4590 hn         1 BGI       0.325500
     51 H351       143.4150   123.8890    97.9270 hn         1 BGI       0.400500
     52 H352       142.6260   124.0140    96.5250 hn         1 BGI       0.400500
     53 H101       143.9360   120.1550   105.4490 ho         1 BGI       0.463000
     54 H111       145.7060   121.1870    99.2730 ho         1 BGI       0.439000
     55 H301       139.1580   123.2660    91.8290 ho         1 BGI       0.503000
     56 H311       142.0640   122.5000    91.9250 ho         1 BGI       0.498000
     57 O33        142.3630   117.9150    94.5320 o          1 BGI      -0.710000
     58 O34        140.3030   117.4920    95.0060 o          1 BGI      -0.710000
     59 H241       135.7960   117.6900    93.9320 ha         1 BGI       0.225000
@<TRIPOS>BOND
     1     1    14 1   
     2     1    22 1   
     3     1    28 2   
     4     2    15 1   
     5     2    16 1   
     6     2    29 1   
     7     2    34 1   
     8     3    17 1   
     9     3    23 1   
    10     3    29 1   
    11     3    35 1   
    12     4    18 2   
    13     4    19 1   
    14     4    59 1   
    15     5    23 1   
    16     5    24 1   
    17     5    31 2   
    18     6     7 1   
    19     6    36 1   
    20     6    37 1   
    21     6    38 1   
    22     7     8 1   
    23     7    14 1   
    24     7    39 1   
    25     8     9 1   
    26     8    27 1   
    27     8    40 1   
    28     9    13 ar  
    29     9    21 ar  
    30    10    11 ar  
    31    10    21 ar  
    32    10    41 1   
    33    11    12 ar  
    34    11    26 1   
    35    12    13 ar  
    36    12    42 1   
    37    13    43 1   
    38    14    25 1   
    39    14    44 1   
    40    15    20 1   
    41    15    22 1   
    42    15    45 1   
    43    16    17 1   
    44    16    33 1   
    45    16    46 1   
    46    17    32 1   
    47    17    47 1   
    48    18    23 1   
    49    18    48 1   
    50    19    24 1   
    51    19    30 2   
    52    20    57 1   
    53    20    58 1   
    54    22    49 1   
    55    24    50 1   
    56    25    51 1   
    57    25    52 1   
    58    26    53 1   
    59    27    54 1   
    60    32    55 1   
    61    33    56 1   
@<TRIPOS>SUBSTRUCTURE
     1 BGI         1 TEMP              0 ****  ****    0 ROOT
