@<TRIPOS>MOLECULE
BGI
   59    61     1     0     0
SMALL
abcg2


@<TRIPOS>ATOM
      1 C13        141.2230   122.0580    96.5700 c          1 BGI       0.585100
      2 C17        140.7590   120.1650    93.7690 c5         1 BGI       0.136300
      3 C20        139.1850   120.0820    92.0560 c5         1 BGI       0.336700
      4 C24        135.8500   118.9380    93.2040 cc         1 BGI      -0.411200
      5 C28        137.1670   119.5400    90.7900 c          1 BGI       0.622000
      6 C01        141.1950   121.4890    99.4590 c3         1 BGI      -0.087100
      7 C02        142.5060   121.5250    98.6830 c3         1 BGI      -0.033700
      8 C03        143.6650   121.9650    99.5870 c3         1 BGI       0.119000
      9 C04        143.8590   121.0380   100.7650 ca         1 BGI       0.273300
     10 C06        143.6880   120.7210   103.0280 ca         1 BGI       0.244900
     11 C07        144.2100   119.4330   102.9560 ca         1 BGI       0.083100
     12 C08        144.5660   118.9460   101.7010 ca         1 BGI      -0.114000
     13 C09        144.3890   119.7590   100.5990 ca         1 BGI      -0.097000
     14 C12        142.4110   122.4530    97.4460 c3         1 BGI       0.092500
     15 C16        140.2910   120.1970    95.2310 c3         1 BGI      -0.065300
     16 C18        140.7330   121.5340    93.0820 c5         1 BGI       0.091300
     17 C19        139.3160   121.5330    92.5160 c5         1 BGI       0.127300
     18 C23        137.1430   119.3040    93.1720 cd         1 BGI       0.027600
     19 C25        135.0980   118.8530    91.9770 c          1 BGI       0.593200
     20 C32        140.0600   118.7540    95.7470 c          1 BGI       0.729000
     21 N05        143.5230   121.4950   101.9640 nb         1 BGI      -0.637000
     22 N15        141.3190   120.8360    96.0220 ns         1 BGI      -0.476900
     23 N22        137.8030   119.6100    92.0140 n          1 BGI      -0.312000
     24 N27        135.8510   119.1600    90.8520 ns         1 BGI      -0.475500
     25 N35        142.2810   123.8380    97.8550 n8         1 BGI      -0.996200
     26 O10        144.3890   118.6480   104.0320 oh         1 BGI      -0.529100
     27 O11        144.8310   122.0190    98.7920 oh         1 BGI      -0.666000
     28 O14        140.2800   122.8120    96.3690 o          1 BGI      -0.636100
     29 O21        139.9140   119.3250    92.9740 os         1 BGI      -0.423000
     30 O26        133.9260   118.5470    91.8720 o          1 BGI      -0.564000
     31 O29        137.7120   119.7910    89.7360 o          1 BGI      -0.568000
     32 O30        139.0610   122.3910    91.4490 oh         1 BGI      -0.686000
     33 O31        141.6300   121.6090    92.0030 oh         1 BGI      -0.707000
     34 H171       141.7680   119.7380    93.7500 h1         1 BGI       0.078700
     35 H201       139.5810   119.9660    91.0450 h2         1 BGI       0.112700
     36 H011       141.2680   120.8580   100.3450 hc         1 BGI       0.047033
     37 H013       140.9060   122.4880    99.7840 hc         1 BGI       0.047033
     38 H012       140.3840   121.0820    98.8530 hc         1 BGI       0.047033
     39 H021       142.7320   120.5120    98.3300 hc         1 BGI       0.065700
     40 H031       143.4170   122.9520   100.0010 h1         1 BGI       0.067700
     41 H061       143.4000   121.1400   103.9890 h4         1 BGI       0.011100
     42 H081       144.9750   117.9480   101.5980 ha         1 BGI       0.134000
     43 H091       144.6620   119.4020    99.6150 ha         1 BGI       0.143000
     44 H121       143.3060   122.2820    96.8320 h1         1 BGI       0.037700
     45 H161       139.3750   120.7830    95.3230 h1         1 BGI       0.068700
     46 H181       140.8870   122.3530    93.7930 h1         1 BGI       0.065700
     47 H191       138.6180   121.7090    93.3470 h1         1 BGI       0.059700
     48 H231       137.7290   119.3350    94.0820 h4         1 BGI       0.271000
     49 H151       142.1040   120.2460    96.2570 hn         1 BGI       0.332500
     50 H271       135.3770   119.1100    89.9590 hn         1 BGI       0.325500
     51 H351       143.2020   124.2300    98.0010 hn         1 BGI       0.400500
     52 H352       141.8520   124.3830    97.1180 hn         1 BGI       0.400500
     53 H101       144.1000   119.0990   104.8350 ho         1 BGI       0.463000
     54 H111       145.5440   122.3910    99.3200 ho         1 BGI       0.439000
     55 H301       138.9810   123.2890    91.7870 ho         1 BGI       0.503000
     56 H311       142.5260   121.5570    92.3510 ho         1 BGI       0.498000
     57 O33        141.0950   118.1150    96.0110 o          1 BGI      -0.710000
     58 O34        138.8800   118.3700    95.8340 o          1 BGI      -0.710000
     59 H241       135.3730   118.6960    94.1410 ha         1 BGI       0.225000
@<TRIPOS>BOND
     1     1    14 1   
     2     1    22 1   
     3     1    28 2   
     4     2    15 1   
     5     2    16 1   
     6     2    29 1   
     7     2    34 1   
     8     3    17 1   
     9     3    23 1   
    10     3    29 1   
    11     3    35 1   
    12     4    18 2   
    13     4    19 1   
    14     4    59 1   
    15     5    23 1   
    16     5    24 1   
    17     5    31 2   
    18     6     7 1   
    19     6    36 1   
    20     6    37 1   
    21     6    38 1   
    22     7     8 1   
    23     7    14 1   
    24     7    39 1   
    25     8     9 1   
    26     8    27 1   
    27     8    40 1   
    28     9    13 ar  
    29     9    21 ar  
    30    10    11 ar  
    31    10    21 ar  
    32    10    41 1   
    33    11    12 ar  
    34    11    26 1   
    35    12    13 ar  
    36    12    42 1   
    37    13    43 1   
    38    14    25 1   
    39    14    44 1   
    40    15    20 1   
    41    15    22 1   
    42    15    45 1   
    43    16    17 1   
    44    16    33 1   
    45    16    46 1   
    46    17    32 1   
    47    17    47 1   
    48    18    23 1   
    49    18    48 1   
    50    19    24 1   
    51    19    30 2   
    52    20    57 1   
    53    20    58 1   
    54    22    49 1   
    55    24    50 1   
    56    25    51 1   
    57    25    52 1   
    58    26    53 1   
    59    27    54 1   
    60    32    55 1   
    61    33    56 1   
@<TRIPOS>SUBSTRUCTURE
     1 BGI         1 TEMP              0 ****  ****    0 ROOT
