@<TRIPOS>MOLECULE
BGK
   26    28     1     0     0
SMALL
No Charge or Current Charge


@<TRIPOS>ATOM
      1 C1          -4.9840     1.3590     0.0140 ca         1 BGK      -0.170000
      2 C2          -4.0050     2.3670     0.0680 ca         1 BGK       0.354900
      3 C11          1.5110    -0.8960    -0.0030 ca         1 BGK       0.122100
      4 C12          1.8670    -0.2300     1.1830 ca         1 BGK      -0.112500
      5 C13          3.1250     0.3880     1.2930 ca         1 BGK      -0.050500
      6 C14          4.0400     0.3340     0.2190 ca         1 BGK      -0.195600
      7 C15          3.6800    -0.3490    -0.9630 ca         1 BGK      -0.050500
      8 C16          2.4210    -0.9660    -1.0690 ca         1 BGK      -0.112500
      9 C17          5.3840     1.0000     0.3500 c          1 BGK       0.584500
     10 N3          -2.6750     2.1110     0.0600 nb         1 BGK      -0.620000
     11 C4          -2.2710     0.8320    -0.0030 ca         1 BGK       0.531000
     12 C5          -3.1920    -0.2090    -0.0580 ca         1 BGK      -0.260000
     13 C6          -4.5740     0.0210    -0.0520 ca         1 BGK      -0.021000
     14 N7          -0.9330     0.4710    -0.0160 nc         1 BGK      -0.669700
     15 C8          -0.9080    -0.8670    -0.0800 cd         1 BGK       0.608500
     16 S9          -2.4280    -1.7830    -0.1360 ss         1 BGK       0.077800
     17 O10          0.2940    -1.5280    -0.1150 os         1 BGK      -0.308700
     18 O18          6.2300     0.9940    -0.5390 o          1 BGK      -0.512100
     19 H1          -6.0390     1.6200     0.0230 ha         1 BGK       0.129000
     20 H2          -4.2950     3.4160     0.1200 h4         1 BGK       0.027100
     21 H3           1.1700    -0.1910     2.0160 ha         1 BGK       0.134500
     22 H4           3.3880     0.9050     2.2150 ha         1 BGK       0.129500
     23 H5           4.3740    -0.4060    -1.8010 ha         1 BGK       0.129500
     24 H6           2.1500    -1.4950    -1.9790 ha         1 BGK       0.134500
     25 H7           5.5800     1.5140     1.3180 h4         1 BGK      -0.008800
     26 H8          -5.2930    -0.7960    -0.0960 ha         1 BGK       0.130000
@<TRIPOS>BOND
     1     1     2 ar  
     2     1    13 ar  
     3     1    19 1   
     4     2    10 ar  
     5     2    20 1   
     6     3     4 ar  
     7     3     8 ar  
     8     3    17 1   
     9     4     5 ar  
    10     4    21 1   
    11     5     6 ar  
    12     5    22 1   
    13     6     7 ar  
    14     6     9 1   
    15     7     8 ar  
    16     7    23 1   
    17     8    24 1   
    18     9    18 2   
    19     9    25 1   
    20    10    11 ar  
    21    11    12 ar  
    22    11    14 1   
    23    12    13 ar  
    24    12    16 1   
    25    13    26 1   
    26    14    15 2   
    27    15    16 1   
    28    15    17 1   
@<TRIPOS>SUBSTRUCTURE
     1 BGK         1 TEMP              0 ****  ****    0 ROOT
