@<TRIPOS>MOLECULE
BGK
   26    28     1     0     0
SMALL
abcg2


@<TRIPOS>ATOM
      1 C1          -4.8670     1.3620    -0.0780 ca         1 BGK      -0.170000
      2 C2          -3.8750     2.3380    -0.1200 ca         1 BGK       0.354900
      3 C11          1.4940    -0.8920     0.1010 ca         1 BGK       0.122100
      4 C12          1.9210    -0.3660     1.3070 ca         1 BGK      -0.112500
      5 C13          3.1580     0.2550     1.3540 ca         1 BGK      -0.050500
      6 C14          3.9470     0.3470     0.2100 ca         1 BGK      -0.195600
      7 C15          3.4930    -0.1920    -0.9930 ca         1 BGK      -0.050500
      8 C16          2.2590    -0.8130    -1.0530 ca         1 BGK      -0.112500
      9 C17          5.2570     1.0110     0.3020 c          1 BGK       0.584500
     10 N3          -2.5750     2.0780    -0.1100 nb         1 BGK      -0.620000
     11 C4          -2.2200     0.8050    -0.0550 ca         1 BGK       0.531000
     12 C5          -3.1510    -0.2480    -0.0090 ca         1 BGK      -0.260000
     13 C6          -4.5050     0.0250    -0.0210 ca         1 BGK      -0.021000
     14 N7          -0.9000     0.4190    -0.0400 nc         1 BGK      -0.669700
     15 C8          -0.8240    -0.8550     0.0160 cd         1 BGK       0.608500
     16 S9          -2.3120    -1.7660     0.0580 ss         1 BGK       0.077800
     17 O10          0.2890    -1.5710     0.0400 os         1 BGK      -0.308700
     18 O18          6.0220     1.1440    -0.6240 o          1 BGK      -0.512100
     19 H1          -5.9090     1.6500    -0.0900 ha         1 BGK       0.129000
     20 H2          -4.1540     3.3850    -0.1650 h4         1 BGK       0.027100
     21 H3           1.3080    -0.4480     2.1950 ha         1 BGK       0.134500
     22 H4           3.5120     0.6700     2.2900 ha         1 BGK       0.129500
     23 H5           4.1010    -0.1230    -1.8850 ha         1 BGK       0.129500
     24 H6           1.8930    -1.2350    -1.9790 ha         1 BGK       0.134500
     25 H7           5.5060     1.3940     1.3070 h4         1 BGK      -0.008800
     26 H8          -5.2480    -0.7600     0.0120 ha         1 BGK       0.130000
@<TRIPOS>BOND
     1     1     2 ar  
     2     1    13 ar  
     3     1    19 1   
     4     2    10 ar  
     5     2    20 1   
     6     3     4 ar  
     7     3     8 ar  
     8     3    17 1   
     9     4     5 ar  
    10     4    21 1   
    11     5     6 ar  
    12     5    22 1   
    13     6     7 ar  
    14     6     9 1   
    15     7     8 ar  
    16     7    23 1   
    17     8    24 1   
    18     9    18 2   
    19     9    25 1   
    20    10    11 ar  
    21    11    12 ar  
    22    11    14 1   
    23    12    13 ar  
    24    12    16 1   
    25    13    26 1   
    26    14    15 2   
    27    15    16 1   
    28    15    17 1   
@<TRIPOS>SUBSTRUCTURE
     1 BGK         1 TEMP              0 ****  ****    0 ROOT
