@<TRIPOS>MOLECULE
BGL
   48    48     1     0     0
SMALL
No Charge or Current Charge


@<TRIPOS>ATOM
      1 C1         -22.9110    56.9210    56.6810 c6         1 BGL       0.370300
      2 O1         -22.0020    56.9230    55.6000 oh         1 BGL      -0.693000
      3 C2         -23.5880    58.3210    56.9380 c6         1 BGL       0.159300
      4 O2         -22.6680    59.3650    57.3850 os         1 BGL      -0.457000
      5 C3         -24.7320    58.1250    57.9830 c6         1 BGL       0.169300
      6 O3         -25.4740    59.3350    58.2330 oh         1 BGL      -0.704000
      7 C4         -25.7190    57.0110    57.5290 c6         1 BGL       0.101300
      8 O4         -26.7510    56.8430    58.5300 oh         1 BGL      -0.728000
      9 C5         -24.9160    55.6960    57.2670 c6         1 BGL       0.158300
     10 O5         -23.8840    55.9530    56.2800 os         1 BGL      -0.475000
     11 C6         -25.8070    54.5210    56.7400 c3         1 BGL       0.165600
     12 O6         -26.4580    54.8050    55.4850 oh         1 BGL      -0.712000
     13 C9         -21.6610    59.8290    56.4670 c3         1 BGL       0.175600
     14 C10        -21.0100    61.0800    57.0870 c3         1 BGL      -0.086400
     15 C11        -19.9030    61.6870    56.1970 c3         1 BGL      -0.074400
     16 C12        -19.2470    62.9410    56.8210 c3         1 BGL      -0.072400
     17 C13        -18.1940    63.6300    55.9190 c3         1 BGL      -0.073400
     18 C14        -16.9300    62.7810    55.6460 c3         1 BGL      -0.077400
     19 C7         -15.8670    63.5360    54.8180 c3         1 BGL      -0.075400
     20 C8         -14.6070    62.6920    54.5420 c3         1 BGL      -0.088100
     21 H1         -22.4040    56.5770    57.5950 h2         1 BGL       0.025700
     22 HO1        -22.3160    56.1640    55.0620 ho         1 BGL       0.518000
     23 H2         -24.0460    58.6530    55.9950 h1         1 BGL       0.073700
     24 H3         -24.2640    57.7900    58.9220 h1         1 BGL       0.048700
     25 HO3        -26.3060    59.0150    58.6600 ho         1 BGL       0.516000
     26 H4         -26.1690    57.3260    56.5740 h1         1 BGL       0.075700
     27 HO4        -27.4860    56.3330    58.1100 ho         1 BGL       0.514000
     28 H5         -24.4360    55.3670    58.2000 h1         1 BGL       0.045700
     29 H61        -25.1620    53.6390    56.6340 h1         1 BGL       0.031200
     30 H62        -26.5540    54.2760    57.5080 h1         1 BGL       0.031200
     31 HO6        -26.8550    53.9590    55.1680 ho         1 BGL       0.504000
     32 H1'1       -20.8870    59.0680    56.3100 h1         1 BGL       0.030200
     33 H1'2       -22.1060    60.0890    55.4970 h1         1 BGL       0.030200
     34 H2'1       -21.7860    61.8350    57.2660 hc         1 BGL       0.051200
     35 H2'2       -20.5840    60.8150    58.0630 hc         1 BGL       0.051200
     36 H3'1       -19.1380    60.9220    56.0170 hc         1 BGL       0.038200
     37 H3'2       -20.3310    61.9500    55.2210 hc         1 BGL       0.038200
     38 H4'1       -20.0330    63.6710    57.0510 hc         1 BGL       0.038700
     39 H4'2       -18.7820    62.6710    57.7770 hc         1 BGL       0.038700
     40 H5'1       -18.6610    63.9060    54.9660 hc         1 BGL       0.037200
     41 H5'2       -17.8910    64.5680    56.4010 hc         1 BGL       0.037200
     42 H6'1       -16.4890    62.4720    56.6020 hc         1 BGL       0.037700
     43 H6'2       -17.2090    61.8670    55.1100 hc         1 BGL       0.037700
     44 H7'1       -16.3040    63.8470    53.8610 hc         1 BGL       0.036200
     45 H7'2       -15.5730    64.4500    55.3490 hc         1 BGL       0.036200
     46 H8'1       -13.8830    63.2680    53.9530 hc         1 BGL       0.031033
     47 H8'2       -14.1260    62.3940    55.4810 hc         1 BGL       0.031033
     48 H8'3       -14.8620    61.7860    53.9800 hc         1 BGL       0.031033
@<TRIPOS>BOND
     1     1     2 1   
     2     1     3 1   
     3     1    10 1   
     4     1    21 1   
     5     2    22 1   
     6     3     4 1   
     7     3     5 1   
     8     3    23 1   
     9     4    13 1   
    10     5     6 1   
    11     5     7 1   
    12     5    24 1   
    13     6    25 1   
    14     7     8 1   
    15     7     9 1   
    16     7    26 1   
    17     8    27 1   
    18     9    10 1   
    19     9    11 1   
    20     9    28 1   
    21    11    12 1   
    22    11    29 1   
    23    11    30 1   
    24    12    31 1   
    25    13    14 1   
    26    13    32 1   
    27    13    33 1   
    28    14    15 1   
    29    14    34 1   
    30    14    35 1   
    31    15    16 1   
    32    15    36 1   
    33    15    37 1   
    34    16    17 1   
    35    16    38 1   
    36    16    39 1   
    37    17    18 1   
    38    17    40 1   
    39    17    41 1   
    40    18    19 1   
    41    18    42 1   
    42    18    43 1   
    43    19    20 1   
    44    19    44 1   
    45    19    45 1   
    46    20    46 1   
    47    20    47 1   
    48    20    48 1   
@<TRIPOS>SUBSTRUCTURE
     1 BGL         1 TEMP              0 ****  ****    0 ROOT
