@<TRIPOS>MOLECULE
BGL
   48    48     1     0     0
SMALL
bcc


@<TRIPOS>ATOM
      1 C1         -22.8870    56.5980    56.6680 c6         1 BGL       0.323900
      2 O1         -21.9120    56.4990    55.7000 oh         1 BGL      -0.570800
      3 C2         -23.3170    58.0620    56.7860 c6         1 BGL       0.136100
      4 O2         -22.2800    58.8430    57.3160 os         1 BGL      -0.410600
      5 C3         -24.5140    58.1800    57.7210 c6         1 BGL       0.146100
      6 O3         -24.9640    59.5090    57.6890 oh         1 BGL      -0.581800
      7 C4         -25.6100    57.2010    57.3190 c6         1 BGL       0.078100
      8 O4         -26.6280    57.2940    58.2910 oh         1 BGL      -0.605800
      9 C5         -25.0190    55.7910    57.2420 c6         1 BGL       0.135100
     10 O5         -23.9780    55.7930    56.2860 os         1 BGL      -0.428600
     11 C6         -26.0200    54.7170    56.8790 c3         1 BGL       0.142400
     12 O6         -26.6610    55.0460    55.6700 oh         1 BGL      -0.589800
     13 C9         -21.4710    59.5570    56.4050 c3         1 BGL       0.152400
     14 C10        -20.8630    60.7490    57.1180 c3         1 BGL      -0.086400
     15 C11        -19.9210    61.5360    56.2160 c3         1 BGL      -0.074400
     16 C12        -19.3250    62.7540    56.9140 c3         1 BGL      -0.072400
     17 C13        -18.3690    63.5670    56.0450 c3         1 BGL      -0.073400
     18 C14        -17.0750    62.8400    55.6980 c3         1 BGL      -0.077400
     19 C7         -16.1200    63.6800    54.8590 c3         1 BGL      -0.075400
     20 C8         -14.8280    62.9460    54.5260 c3         1 BGL      -0.088100
     21 H1         -22.5170    56.2600    57.6540 h2         1 BGL       0.025700
     22 HO1        -21.4270    55.6750    55.8150 ho         1 BGL       0.419000
     23 H2         -23.6130    58.4170    55.7860 h1         1 BGL       0.073700
     24 H3         -24.1770    57.9020    58.7350 h1         1 BGL       0.048700
     25 HO3        -25.7390    59.5690    58.2580 ho         1 BGL       0.417000
     26 H4         -25.9850    57.4840    56.3270 h1         1 BGL       0.075700
     27 HO4        -27.4660    57.0490    57.8880 ho         1 BGL       0.415000
     28 H5         -24.6220    55.5250    58.2360 h1         1 BGL       0.045700
     29 H61        -25.4900    53.7580    56.8150 h1         1 BGL       0.031200
     30 H62        -26.7300    54.6250    57.7100 h1         1 BGL       0.031200
     31 HO6        -27.3400    54.3860    55.5000 ho         1 BGL       0.405000
     32 H1'1       -20.6760    58.9200    56.0000 h1         1 BGL       0.030200
     33 H1'2       -22.0670    59.9040    55.5510 h1         1 BGL       0.030200
     34 H2'1       -21.6650    61.4030    57.4770 hc         1 BGL       0.051200
     35 H2'2       -20.3160    60.4070    58.0020 hc         1 BGL       0.051200
     36 H3'1       -19.1240    60.8720    55.8660 hc         1 BGL       0.038200
     37 H3'2       -20.4570    61.8640    55.3190 hc         1 BGL       0.038200
     38 H4'1       -20.1430    63.4000    57.2480 hc         1 BGL       0.038700
     39 H4'2       -18.8030    62.4340    57.8230 hc         1 BGL       0.038700
     40 H5'1       -18.8810    63.8640    55.1230 hc         1 BGL       0.037200
     41 H5'2       -18.1200    64.4970    56.5660 hc         1 BGL       0.037200
     42 H6'1       -16.5730    62.5410    56.6250 hc         1 BGL       0.037700
     43 H6'2       -17.2960    61.9130    55.1610 hc         1 BGL       0.037700
     44 H7'1       -16.6200    63.9790    53.9330 hc         1 BGL       0.036200
     45 H7'2       -15.8870    64.6080    55.3910 hc         1 BGL       0.036200
     46 H8'1       -14.1580    63.5610    53.9260 hc         1 BGL       0.031033
     47 H8'2       -14.2910    62.6620    55.4340 hc         1 BGL       0.031033
     48 H8'3       -15.0280    62.0310    53.9650 hc         1 BGL       0.031033
@<TRIPOS>BOND
     1     1     2 1   
     2     1     3 1   
     3     1    10 1   
     4     1    21 1   
     5     2    22 1   
     6     3     4 1   
     7     3     5 1   
     8     3    23 1   
     9     4    13 1   
    10     5     6 1   
    11     5     7 1   
    12     5    24 1   
    13     6    25 1   
    14     7     8 1   
    15     7     9 1   
    16     7    26 1   
    17     8    27 1   
    18     9    10 1   
    19     9    11 1   
    20     9    28 1   
    21    11    12 1   
    22    11    29 1   
    23    11    30 1   
    24    12    31 1   
    25    13    14 1   
    26    13    32 1   
    27    13    33 1   
    28    14    15 1   
    29    14    34 1   
    30    14    35 1   
    31    15    16 1   
    32    15    36 1   
    33    15    37 1   
    34    16    17 1   
    35    16    38 1   
    36    16    39 1   
    37    17    18 1   
    38    17    40 1   
    39    17    41 1   
    40    18    19 1   
    41    18    42 1   
    42    18    43 1   
    43    19    20 1   
    44    19    44 1   
    45    19    45 1   
    46    20    46 1   
    47    20    47 1   
    48    20    48 1   
@<TRIPOS>SUBSTRUCTURE
     1 BGL         1 TEMP              0 ****  ****    0 ROOT
