@<TRIPOS>MOLECULE
BGN
   36    36     1     0     0
SMALL
No Charge or Current Charge


@<TRIPOS>ATOM
      1 C1           1.2900    -0.6000    -0.7380 c6         1 BGN       0.382300
      2 C2           0.1710     0.1220     0.0840 c6         1 BGN       0.086700
      3 C3          -1.1810    -0.1100    -0.6550 c6         1 BGN       0.161300
      4 C4          -1.0960     0.3560    -2.1390 c6         1 BGN       0.096300
      5 C5           0.1040    -0.3670    -2.8310 c6         1 BGN       0.156300
      6 C6           0.3340     0.1020    -4.3070 c3         1 BGN       0.170600
      7 C7           0.7540     0.2170     2.5610 c          1 BGN       0.613100
      8 C8           0.5520    -0.5050     3.8980 c3         1 BGN      -0.158400
      9 C9          -0.3870     0.2880     4.8370 c3         1 BGN      -0.064400
     10 C10         -0.6150    -0.4110     6.1910 c3         1 BGN      -0.092100
     11 N2           0.0990    -0.3490     1.4910 ns         1 BGN      -0.495900
     12 O1           2.5820    -0.3300    -0.2350 oh         1 BGN      -0.620000
     13 O3          -2.2620     0.5720    -0.0010 oh         1 BGN      -0.640000
     14 O4          -2.3550     0.0930    -2.8040 oh         1 BGN      -0.724000
     15 O5           1.3190    -0.1090    -2.0800 os         1 BGN      -0.469000
     16 O6           1.4800    -0.5130    -4.9290 oh         1 BGN      -0.706000
     17 O7           1.4560     1.2120     2.4510 o          1 BGN      -0.587100
     18 H1           1.1150    -1.6860    -0.7460 h2         1 BGN       0.011700
     19 H2           0.3890     1.2000     0.0800 h1         1 BGN       0.121700
     20 H3          -1.3840    -1.1910    -0.6530 h1         1 BGN       0.034700
     21 H4          -0.8890     1.4380    -2.1450 h1         1 BGN       0.062700
     22 H5          -0.0810    -1.4510    -2.8430 h1         1 BGN       0.057700
     23 H61         -0.5690    -0.1300    -4.8880 h1         1 BGN       0.027200
     24 H62          0.4500     1.1940    -4.3050 h1         1 BGN       0.027200
     25 H81          1.5260    -0.6110     4.3900 hc         1 BGN       0.052700
     26 H82          0.1150    -1.4970     3.7270 hc         1 BGN       0.052700
     27 H91         -1.3550     0.4370     4.3430 hc         1 BGN       0.055700
     28 H92          0.0350     1.2860     5.0180 hc         1 BGN       0.055700
     29 H101        -1.2840     0.1870     6.8220 hc         1 BGN       0.031367
     30 H102        -1.0720    -1.3980     6.0470 hc         1 BGN       0.031367
     31 H103         0.3330    -0.5430     6.7260 hc         1 BGN       0.031367
     32 HN2         -0.4780    -1.1550     1.6960 hn         1 BGN       0.304500
     33 HO1          3.1070    -0.1670    -1.0460 ho         1 BGN       0.458000
     34 HO3         -2.9880     0.5750    -0.6670 ho         1 BGN       0.456000
     35 HO4         -2.4280     0.7110    -3.5700 ho         1 BGN       0.512000
     36 HO6          1.5810    -0.1000    -5.8180 ho         1 BGN       0.505000
@<TRIPOS>BOND
     1     1     2 1   
     2     1    12 1   
     3     1    15 1   
     4     1    18 1   
     5     2     3 1   
     6     2    11 1   
     7     2    19 1   
     8     3     4 1   
     9     3    13 1   
    10     3    20 1   
    11     4     5 1   
    12     4    14 1   
    13     4    21 1   
    14     5     6 1   
    15     5    15 1   
    16     5    22 1   
    17     6    16 1   
    18     6    23 1   
    19     6    24 1   
    20     7     8 1   
    21     7    11 1   
    22     7    17 2   
    23     8     9 1   
    24     8    25 1   
    25     8    26 1   
    26     9    10 1   
    27     9    27 1   
    28     9    28 1   
    29    10    29 1   
    30    10    30 1   
    31    10    31 1   
    32    11    32 1   
    33    12    33 1   
    34    13    34 1   
    35    14    35 1   
    36    16    36 1   
@<TRIPOS>SUBSTRUCTURE
     1 BGN         1 TEMP              0 ****  ****    0 ROOT
