@<TRIPOS>MOLECULE
BGN
   36    36     1     0     0
SMALL
abcg2


@<TRIPOS>ATOM
      1 C1           1.2350    -0.4160    -0.7070 c6         1 BGN       0.382300
      2 C2           0.0120     0.1740     0.0010 c6         1 BGN       0.086700
      3 C3          -1.2420    -0.1270    -0.8120 c6         1 BGN       0.161300
      4 C4          -1.0640     0.3070    -2.2630 c6         1 BGN       0.096300
      5 C5           0.2220    -0.3020    -2.8320 c6         1 BGN       0.156300
      6 C6           0.5000     0.1680    -4.2430 c3         1 BGN       0.170600
      7 C7           0.1580     0.3520     2.4570 c          1 BGN       0.613100
      8 C8           0.0460    -0.4600     3.7310 c3         1 BGN      -0.158400
      9 C9          -0.0900     0.3790     4.9930 c3         1 BGN      -0.064400
     10 C10         -0.1670    -0.4950     6.2370 c3         1 BGN      -0.092100
     11 N2          -0.1110    -0.3450     1.3360 ns         1 BGN      -0.495900
     12 O1           2.3670    -0.0310    -0.0260 oh         1 BGN      -0.620000
     13 O3          -2.3260     0.5210    -0.2010 oh         1 BGN      -0.640000
     14 O4          -2.2090    -0.1250    -2.9660 oh         1 BGN      -0.724000
     15 O5           1.3120     0.0800    -2.0210 os         1 BGN      -0.469000
     16 O6           1.6320    -0.5070    -4.7370 oh         1 BGN      -0.706000
     17 O7           0.4780     1.5310     2.4520 o          1 BGN      -0.587100
     18 H1           1.1370    -1.5160    -0.7420 h2         1 BGN       0.011700
     19 H2           0.1450     1.2570     0.0670 h1         1 BGN       0.121700
     20 H3          -1.3950    -1.2210    -0.8150 h1         1 BGN       0.034700
     21 H4          -0.9740     1.4020    -2.2900 h1         1 BGN       0.062700
     22 H5           0.1160    -1.4000    -2.8380 h1         1 BGN       0.057700
     23 H61         -0.3860    -0.0340    -4.8540 h1         1 BGN       0.027200
     24 H62          0.6460     1.2570    -4.2350 h1         1 BGN       0.027200
     25 H81          0.9420    -1.0880     3.8000 hc         1 BGN       0.052700
     26 H82         -0.7940    -1.1560     3.6490 hc         1 BGN       0.052700
     27 H91         -0.9850     1.0040     4.9270 hc         1 BGN       0.055700
     28 H92          0.7570     1.0620     5.0750 hc         1 BGN       0.055700
     29 H101        -0.2550     0.1080     7.1410 hc         1 BGN       0.031367
     30 H102        -1.0290    -1.1640     6.2000 hc         1 BGN       0.031367
     31 H103         0.7260    -1.1150     6.3390 hc         1 BGN       0.031367
     32 HN2         -0.3710    -1.3150     1.4350 hn         1 BGN       0.304500
     33 HO1          3.0940    -0.6200    -0.2560 ho         1 BGN       0.458000
     34 HO3         -3.1110     0.3370    -0.7280 ho         1 BGN       0.456000
     35 HO4         -2.4090     0.5060    -3.6620 ho         1 BGN       0.512000
     36 HO6          1.7610    -0.2410    -5.6510 ho         1 BGN       0.505000
@<TRIPOS>BOND
     1     1     2 1   
     2     1    12 1   
     3     1    15 1   
     4     1    18 1   
     5     2     3 1   
     6     2    11 1   
     7     2    19 1   
     8     3     4 1   
     9     3    13 1   
    10     3    20 1   
    11     4     5 1   
    12     4    14 1   
    13     4    21 1   
    14     5     6 1   
    15     5    15 1   
    16     5    22 1   
    17     6    16 1   
    18     6    23 1   
    19     6    24 1   
    20     7     8 1   
    21     7    11 1   
    22     7    17 2   
    23     8     9 1   
    24     8    25 1   
    25     8    26 1   
    26     9    10 1   
    27     9    27 1   
    28     9    28 1   
    29    10    29 1   
    30    10    30 1   
    31    10    31 1   
    32    11    32 1   
    33    12    33 1   
    34    13    34 1   
    35    14    35 1   
    36    16    36 1   
@<TRIPOS>SUBSTRUCTURE
     1 BGN         1 TEMP              0 ****  ****    0 ROOT
