@<TRIPOS>MOLECULE
BGT
   32    31     1     0     0
SMALL
bcc


@<TRIPOS>ATOM
      1 CB          -1.2640     0.1170    -0.1070 c3         1 BGT      -0.053400
      2 CG          -2.6510     0.2240     0.5030 c3         1 BGT      -0.157400
      3 CD          -3.6210    -0.8150    -0.0200 c          1 BGT       0.671100
      4 OE1         -3.2950    -1.6920    -0.8070 o          1 BGT      -0.609100
      5 NE2         -4.8710    -0.6980     0.4570 nt         1 BGT      -0.682000
      6 CT           2.9500    -0.5990     0.0430 c3         1 BGT       0.180800
      7 C1           4.0480     0.4390     0.2370 c3         1 BGT      -0.107433
      8 C2           2.9000    -1.1160    -1.3890 c3         1 BGT      -0.107433
      9 C3           3.1560    -1.7600     1.0080 c3         1 BGT      -0.107433
     10 C            1.0730     0.9680    -0.1420 c          1 BGT       0.613100
     11 O            1.5560     1.6370    -1.0220 o          1 BGT      -0.552000
     12 OXT          1.6520    -0.0680     0.4400 os         1 BGT      -0.435900
     13 N           -0.8490     2.5190     0.1360 n8         1 BGT      -0.882800
     14 CA          -0.3240     1.2070     0.4280 c3         1 BGT       0.106500
     15 HB1         -1.3240     0.2040    -1.1960 hc         1 BGT       0.065200
     16 HB2         -0.8400    -0.8640     0.1080 hc         1 BGT       0.065200
     17 HG1         -2.5890     0.1190     1.5910 hc         1 BGT       0.066200
     18 HG2         -3.0630     1.2200     0.3250 hc         1 BGT       0.066200
     19 HE21        -5.1290     0.0300     1.1000 hn         1 BGT       0.312500
     20 HE22        -5.5900    -1.3450     0.1770 hn         1 BGT       0.312500
     21 H11          4.0070     1.2360    -0.5010 hc         1 BGT       0.049144
     22 H12          4.0000     0.8800     1.2340 hc         1 BGT       0.049144
     23 H13          5.0190    -0.0510     0.1440 hc         1 BGT       0.049144
     24 H21          3.8330    -1.6330    -1.6140 hc         1 BGT       0.049144
     25 H22          2.0870    -1.8320    -1.5190 hc         1 BGT       0.049144
     26 H23          2.7820    -0.3160    -2.1170 hc         1 BGT       0.049144
     27 H31          3.1890    -1.4170     2.0430 hc         1 BGT       0.049144
     28 H32          2.3590    -2.4990     0.9140 hc         1 BGT       0.049144
     29 H33          4.1010    -2.2560     0.7900 hc         1 BGT       0.049144
     30 HN1         -0.2520     3.2340     0.5320 hn         1 BGT       0.356300
     31 HN2         -0.8520     2.6760    -0.8650 hn         1 BGT       0.356300
     32 HA          -0.2600     1.0980     1.5160 h1         1 BGT       0.081700
@<TRIPOS>BOND
     1     1     2 1   
     2     1    14 1   
     3     1    15 1   
     4     1    16 1   
     5     2     3 1   
     6     2    17 1   
     7     2    18 1   
     8     3     4 2   
     9     3     5 1   
    10     5    19 1   
    11     5    20 1   
    12     6     7 1   
    13     6     8 1   
    14     6     9 1   
    15     6    12 1   
    16     7    21 1   
    17     7    22 1   
    18     7    23 1   
    19     8    24 1   
    20     8    25 1   
    21     8    26 1   
    22     9    27 1   
    23     9    28 1   
    24     9    29 1   
    25    10    11 2   
    26    10    12 1   
    27    10    14 1   
    28    13    14 1   
    29    13    30 1   
    30    13    31 1   
    31    14    32 1   
@<TRIPOS>SUBSTRUCTURE
     1 BGT         1 TEMP              0 ****  ****    0 ROOT
