@<TRIPOS>MOLECULE
BGT
   32    31     1     0     0
SMALL
No Charge or Current Charge


@<TRIPOS>ATOM
      1 CB          -1.3350     0.1800    -0.2070 c3         1 BGT      -0.053400
      2 CG          -2.7190     0.2380     0.4930 c3         1 BGT      -0.157400
      3 CD          -3.7210    -0.8410     0.0680 c          1 BGT       0.604100
      4 OE1         -3.4860    -1.7030    -0.7620 o          1 BGT      -0.609100
      5 NE2         -4.9240    -0.7950     0.6770 nt         1 BGT      -0.615000
      6 CT           2.9920    -0.6400     0.0530 c3         1 BGT       0.204000
      7 C1           4.0520     0.4340     0.4100 c3         1 BGT      -0.107433
      8 C2           3.0500    -1.0820    -1.4320 c3         1 BGT      -0.107433
      9 C3           3.1560    -1.8690     0.9740 c3         1 BGT      -0.107433
     10 C            1.1130     0.9550    -0.2680 c          1 BGT       0.564100
     11 O            1.6750     1.6580    -1.1000 o          1 BGT      -0.503000
     12 OXT          1.6680    -0.1410     0.3600 os         1 BGT      -0.459100
     13 N           -0.8530     2.6400     0.0050 n8         1 BGT      -0.993200
     14 CA          -0.3270     1.2550     0.2820 c3         1 BGT       0.106500
     15 HB1         -1.4680     0.2750    -1.2920 hc         1 BGT       0.065200
     16 HB2         -0.9030    -0.8140    -0.0330 hc         1 BGT       0.065200
     17 HG1         -2.6270     0.1960     1.5850 hc         1 BGT       0.066200
     18 HG2         -3.2090     1.2100     0.3650 hc         1 BGT       0.066200
     19 HE21        -5.1160    -0.0800     1.3640 hn         1 BGT       0.312500
     20 HE22        -5.6250    -1.4800     0.4380 hn         1 BGT       0.312500
     21 H11          4.0590     1.2600    -0.3090 hc         1 BGT       0.049144
     22 H12          3.8670     0.8460     1.4100 hc         1 BGT       0.049144
     23 H13          5.0560    -0.0060     0.4070 hc         1 BGT       0.049144
     24 H21          3.9590    -1.6650    -1.6210 hc         1 BGT       0.049144
     25 H22          2.1870    -1.7100    -1.6860 hc         1 BGT       0.049144
     26 H23          3.0670    -0.2260    -2.1150 hc         1 BGT       0.049144
     27 H31          3.0730    -1.5790     2.0290 hc         1 BGT       0.049144
     28 H32          2.3840    -2.6190     0.7650 hc         1 BGT       0.049144
     29 H33          4.1360    -2.3390     0.8270 hc         1 BGT       0.049144
     30 HN1         -0.1870     3.3310     0.3750 hn         1 BGT       0.411500
     31 HN2         -0.8130     2.8110    -1.0080 hn         1 BGT       0.411500
     32 HA          -0.2430     1.1460     1.3730 h1         1 BGT       0.081700
@<TRIPOS>BOND
     1     1     2 1   
     2     1    14 1   
     3     1    15 1   
     4     1    16 1   
     5     2     3 1   
     6     2    17 1   
     7     2    18 1   
     8     3     4 2   
     9     3     5 1   
    10     5    19 1   
    11     5    20 1   
    12     6     7 1   
    13     6     8 1   
    14     6     9 1   
    15     6    12 1   
    16     7    21 1   
    17     7    22 1   
    18     7    23 1   
    19     8    24 1   
    20     8    25 1   
    21     8    26 1   
    22     9    27 1   
    23     9    28 1   
    24     9    29 1   
    25    10    11 2   
    26    10    12 1   
    27    10    14 1   
    28    13    14 1   
    29    13    30 1   
    30    13    31 1   
    31    14    32 1   
@<TRIPOS>SUBSTRUCTURE
     1 BGT         1 TEMP              0 ****  ****    0 ROOT
