@<TRIPOS>MOLECULE
BGU
   24    26     1     0     0
SMALL
bcc


@<TRIPOS>ATOM
      1 N2           2.9340     0.9720     0.0460 na         1 BGU      -0.305300
      2 C3           1.6010     0.6230     0.0410 ca         1 BGU      -0.118200
      3 C7           0.4450     1.3530     0.0350 ca         1 BGU      -0.044000
      4 C8          -0.7630     0.6390     0.0270 ca         1 BGU      -0.228600
      5 C14         -0.7900    -0.7760     0.0280 ca         1 BGU       0.215400
      6 C15          0.4130    -1.4930     0.0350 ca         1 BGU      -0.110000
      7 C4           1.6080    -0.7960     0.0400 ca         1 BGU       0.156400
      8 N5           2.8940    -1.2630     0.0410 nc         1 BGU      -0.655100
      9 C1           3.6490    -0.1840     0.0430 cd         1 BGU       0.660700
     10 N6           4.9940    -0.1880     0.0910 nv         1 BGU      -0.910800
     11 N13         -1.9660    -1.4860     0.0180 nc         1 BGU      -0.702100
     12 C12         -3.0750    -0.8240     0.0150 cd         1 BGU       0.708800
     13 N16         -4.2640    -1.4630     0.0640 nv         1 BGU      -0.928800
     14 N11         -3.1300     0.5450     0.0100 ns         1 BGU      -0.521400
     15 C9          -2.0200     1.3600     0.0160 c          1 BGU       0.736100
     16 O10         -2.1450     2.5750     0.0120 o          1 BGU      -0.626500
     17 HN2          3.3100     1.9060     0.0480 hn         1 BGU       0.305700
     18 H7           0.4470     2.4360     0.0340 ha         1 BGU       0.153000
     19 H15          0.3920    -2.5750     0.0340 ha         1 BGU       0.163000
     20 HN61         5.4440    -1.0570    -0.1430 hn         1 BGU       0.429800
     21 HN62         5.4910     0.6360    -0.2030 hn         1 BGU       0.429800
     22 H161        -4.2440    -2.4530    -0.1160 hn         1 BGU       0.433800
     23 H162        -5.0980    -0.9900    -0.2390 hn         1 BGU       0.433800
     24 HN11        -4.0300     1.0060     0.0150 hn         1 BGU       0.323500
@<TRIPOS>BOND
     1     1     2 1   
     2     1     9 1   
     3     1    17 1   
     4     2     3 ar  
     5     2     7 ar  
     6     3     4 ar  
     7     3    18 1   
     8     4     5 ar  
     9     4    15 1   
    10     5     6 ar  
    11     5    11 1   
    12     6     7 ar  
    13     6    19 1   
    14     7     8 1   
    15     8     9 2   
    16     9    10 1   
    17    10    20 1   
    18    10    21 1   
    19    11    12 2   
    20    12    13 1   
    21    12    14 1   
    22    13    22 1   
    23    13    23 1   
    24    14    15 1   
    25    14    24 1   
    26    15    16 2   
@<TRIPOS>SUBSTRUCTURE
     1 BGU         1 TEMP              0 ****  ****    0 ROOT
