@<TRIPOS>MOLECULE
BGU
   24    26     1     0     0
SMALL
No Charge or Current Charge


@<TRIPOS>ATOM
      1 N2           2.9240     1.0160     0.0440 na         1 BGU      -0.355600
      2 C3           1.6230     0.5880     0.0460 ca         1 BGU      -0.118200
      3 C7           0.4450     1.3410     0.0360 ca         1 BGU      -0.026000
      4 C8          -0.7830     0.6400     0.0410 ca         1 BGU      -0.228600
      5 C14         -0.8110    -0.7800     0.0550 ca         1 BGU       0.215400
      6 C15          0.4120    -1.4870     0.0650 ca         1 BGU      -0.092000
      7 C4           1.6200    -0.7790     0.0600 ca         1 BGU       0.156400
      8 N5           2.9080    -1.2930     0.0680 nc         1 BGU      -0.655100
      9 C1           3.6230    -0.1760     0.0590 cd         1 BGU       0.660700
     10 N6           4.9540    -0.2100     0.0600 nv         1 BGU      -1.021200
     11 N13         -1.9980    -1.5360     0.0600 nc         1 BGU      -0.702100
     12 C12         -3.0650    -0.7770     0.0490 cd         1 BGU       0.708800
     13 N16         -4.2080    -1.4400     0.0450 nv         1 BGU      -1.039200
     14 N11         -3.1520     0.5610     0.0360 ns         1 BGU      -0.454400
     15 C9          -2.0750     1.3690     0.0330 c          1 BGU       0.593600
     16 O10         -2.1770     2.5860     0.0280 o          1 BGU      -0.551000
     17 HN2          3.3000     1.9530     0.0550 hn         1 BGU       0.356000
     18 H7           0.4790     2.4300     0.0260 ha         1 BGU       0.135000
     19 H15          0.4190    -2.5720     0.0760 ha         1 BGU       0.145000
     20 HN61         5.3630    -1.1100    -0.1630 hn         1 BGU       0.485000
     21 HN62         5.4450     0.6020    -0.2930 hn         1 BGU       0.485000
     22 H161        -4.0970    -2.4310    -0.1330 hn         1 BGU       0.489000
     23 H162        -5.0000    -1.0040    -0.4100 hn         1 BGU       0.489000
     24 HN11        -4.0510     1.0110     0.0510 hn         1 BGU       0.323500
@<TRIPOS>BOND
     1     1     2 1   
     2     1     9 1   
     3     1    17 1   
     4     2     3 ar  
     5     2     7 ar  
     6     3     4 ar  
     7     3    18 1   
     8     4     5 ar  
     9     4    15 1   
    10     5     6 ar  
    11     5    11 1   
    12     6     7 ar  
    13     6    19 1   
    14     7     8 1   
    15     8     9 2   
    16     9    10 1   
    17    10    20 1   
    18    10    21 1   
    19    11    12 2   
    20    12    13 1   
    21    12    14 1   
    22    13    22 1   
    23    13    23 1   
    24    14    15 1   
    25    14    24 1   
    26    15    16 2   
@<TRIPOS>SUBSTRUCTURE
     1 BGU         1 TEMP              0 ****  ****    0 ROOT
