@<TRIPOS>MOLECULE
BGV
   42    44     1     0     0
SMALL
No Charge or Current Charge


@<TRIPOS>ATOM
      1 CAA          3.1100     1.6210     0.1250 c2         1 BGV      -0.205000
      2 CAB         -0.6530     3.8850     1.4960 c3         1 BGV      -0.156100
      3 CAC         -1.7830    -3.7010     1.1510 c3         1 BGV      -0.092100
      4 CAD         -1.1610    -0.6770    -2.1130 c3         1 BGV      -0.086100
      5 OAE          0.1690     3.4190    -0.7330 o          1 BGV      -0.474000
      6 CAH         -3.5930    -0.0270    -0.2160 ce         1 BGV      -0.313200
      7 CAI         -3.2220    -1.1700     0.3770 c2         1 BGV      -0.145200
      8 CAJ          0.4650    -2.6730     0.6520 c3         1 BGV      -0.083400
      9 OAK         -0.2850     1.6650     0.6930 os         1 BGV      -0.473100
     10 OAL          2.7570    -1.9790     0.2720 os         1 BGV      -0.433100
     11 CAM         -0.2260     2.9910     0.3430 c          1 BGV       0.609100
     12 CAN          2.6380     0.3530     0.2090 ce         1 BGV      -0.245400
     13 CAO         -2.4960     0.8190    -0.7010 c          1 BGV       0.577300
     14 CAP          3.5140    -0.8550     0.2000 c          1 BGV       0.658300
     15 CAQ         -1.0510    -2.6310     0.3000 c3         1 BGV      -0.042700
     16 CAR          1.3940    -1.6490    -0.0420 c5         1 BGV       0.185300
     17 CAS         -1.6970    -1.2070     0.4260 c5         1 BGV      -0.039500
     18 CAT          0.0660     0.6450    -0.2700 c3         1 BGV       0.217300
     19 CAU          1.2120    -0.1700     0.4190 c5         1 BGV      -0.064500
     20 CAV         -1.2560    -0.1180    -0.6520 c5         1 BGV      -0.166000
     21 HAB         -1.6690     3.6070     1.7970 hc         1 BGV       0.071367
     22 HABA        -0.0680     3.6210     2.3830 hc         1 BGV       0.071367
     23 HABB        -0.5740     4.9500     1.2560 hc         1 BGV       0.071367
     24 HACA        -2.7980    -3.8780     0.7800 hc         1 BGV       0.039700
     25 HACB        -1.2560    -4.6620     1.1090 hc         1 BGV       0.039700
     26 HAD         -0.9990     0.1340    -2.8340 hc         1 BGV       0.049367
     27 HADA        -0.3570    -1.3980    -2.2650 hc         1 BGV       0.049367
     28 HADB        -2.0910    -1.1810    -2.4050 hc         1 BGV       0.049367
     29 HAH         -4.6210     0.3170    -0.3180 ha         1 BGV       0.215000
     30 HAI         -3.9120    -1.8900     0.8250 ha         1 BGV       0.195000
     31 HAJ          0.5730    -2.5620     1.7380 hc         1 BGV       0.061700
     32 HAJA         0.8370    -3.6800     0.4210 hc         1 BGV       0.061700
     33 HAQ         -1.1510    -2.9710    -0.7380 hc         1 BGV       0.057700
     34 HAR          1.3060    -1.7400    -1.1290 h1         1 BGV       0.066700
     35 HAS         -1.4200    -0.8550     1.4290 hc         1 BGV       0.076700
     36 HAT          0.4800     1.0800    -1.1900 h1         1 BGV       0.090700
     37 HAU          0.9920    -0.1650     1.4930 hc         1 BGV       0.085700
     38 HAA          4.1750     1.8290     0.0070 ha         1 BGV       0.188000
     39 HAAA         2.4630     2.4930     0.1780 ha         1 BGV       0.188000
     40 HAC         -1.8430    -3.3920     2.2020 hc         1 BGV       0.039700
     41 OAF         -2.6180     1.9620    -1.1220 o          1 BGV      -0.507100
     42 OAG          4.7350    -0.8540     0.1570 o          1 BGV      -0.487000
@<TRIPOS>BOND
     1     1    12 2   
     2     1    38 1   
     3     1    39 1   
     4     2    11 1   
     5     2    21 1   
     6     2    22 1   
     7     2    23 1   
     8     3    15 1   
     9     3    24 1   
    10     3    25 1   
    11     3    40 1   
    12     4    20 1   
    13     4    26 1   
    14     4    27 1   
    15     4    28 1   
    16     5    11 2   
    17     6     7 2   
    18     6    13 1   
    19     6    29 1   
    20     7    17 1   
    21     7    30 1   
    22     8    15 1   
    23     8    16 1   
    24     8    31 1   
    25     8    32 1   
    26     9    11 1   
    27     9    18 1   
    28    10    14 1   
    29    10    16 1   
    30    12    14 1   
    31    12    19 1   
    32    13    20 1   
    33    13    41 2   
    34    14    42 2   
    35    15    17 1   
    36    15    33 1   
    37    16    19 1   
    38    16    34 1   
    39    17    20 1   
    40    17    35 1   
    41    18    19 1   
    42    18    20 1   
    43    18    36 1   
    44    19    37 1   
@<TRIPOS>SUBSTRUCTURE
     1 BGV         1 TEMP              0 ****  ****    0 ROOT
