@<TRIPOS>MOLECULE
BGV
   42    44     1     0     0
SMALL
abcg2


@<TRIPOS>ATOM
      1 CAA          3.0950     1.5340     0.0390 c2         1 BGV      -0.205000
      2 CAB         -0.8620     3.7590     1.4840 c3         1 BGV      -0.156100
      3 CAC         -1.7620    -3.6060     1.1260 c3         1 BGV      -0.092100
      4 CAD         -1.1200    -0.6940    -2.0630 c3         1 BGV      -0.086100
      5 OAE          0.2550     3.4120    -0.6130 o          1 BGV      -0.474000
      6 CAH         -3.5410     0.0640    -0.0890 ce         1 BGV      -0.313200
      7 CAI         -3.0810    -1.0390     0.5050 c2         1 BGV      -0.145200
      8 CAJ          0.4600    -2.6570     0.5720 c3         1 BGV      -0.083400
      9 OAK         -0.2650     1.6510     0.6800 os         1 BGV      -0.473100
     10 OAL          2.7140    -1.9680     0.1860 os         1 BGV      -0.433100
     11 CAM         -0.2290     2.9550     0.3900 c          1 BGV       0.609100
     12 CAN          2.5930     0.3190     0.2200 ce         1 BGV      -0.245400
     13 CAO         -2.4270     0.7910    -0.6960 c          1 BGV       0.577300
     14 CAP          3.4670    -0.8750     0.3010 c          1 BGV       0.658300
     15 CAQ         -1.0350    -2.5930     0.2430 c3         1 BGV      -0.042700
     16 CAR          1.3430    -1.6430    -0.1280 c5         1 BGV       0.185300
     17 CAS         -1.5880    -1.1750     0.4340 c5         1 BGV      -0.039500
     18 CAT          0.0840     0.6590    -0.2970 c3         1 BGV       0.217300
     19 CAU          1.1850    -0.1870     0.3490 c5         1 BGV      -0.064500
     20 CAV         -1.1940    -0.1230    -0.6350 c5         1 BGV      -0.166000
     21 HAB         -1.9450     3.6300     1.4470 hc         1 BGV       0.071367
     22 HABA        -0.5280     3.4260     2.4660 hc         1 BGV       0.071367
     23 HABB        -0.6340     4.8140     1.3610 hc         1 BGV       0.071367
     24 HACA        -2.7950    -3.7530     0.8140 hc         1 BGV       0.039700
     25 HACB        -1.2690    -4.5770     1.0750 hc         1 BGV       0.039700
     26 HAD         -0.9640     0.1170    -2.7740 hc         1 BGV       0.049367
     27 HADA        -0.3150    -1.4090    -2.2050 hc         1 BGV       0.049367
     28 HADB        -2.0470    -1.2020    -2.3320 hc         1 BGV       0.049367
     29 HAH         -4.5660     0.4070    -0.1090 ha         1 BGV       0.215000
     30 HAI         -3.6990    -1.7380     1.0520 ha         1 BGV       0.195000
     31 HAJ          0.5880    -2.5350     1.6530 hc         1 BGV       0.061700
     32 HAJA         0.8190    -3.6580     0.3200 hc         1 BGV       0.061700
     33 HAQ         -1.1810    -2.8990    -0.7970 hc         1 BGV       0.057700
     34 HAR          1.2550    -1.7230    -1.2130 h1         1 BGV       0.066700
     35 HAS         -1.2330    -0.8280     1.4170 hc         1 BGV       0.076700
     36 HAT          0.4600     1.1420    -1.2020 h1         1 BGV       0.090700
     37 HAU          0.9640    -0.2440     1.4230 hc         1 BGV       0.085700
     38 HAA          4.1660     1.6720    -0.0340 ha         1 BGV       0.188000
     39 HAAA         2.4860     2.4200    -0.0610 ha         1 BGV       0.188000
     40 HAC         -1.7640    -3.2900     2.1720 hc         1 BGV       0.039700
     41 OAF         -2.4640     1.8860    -1.2120 o          1 BGV      -0.507100
     42 OAG          4.6590    -0.9310     0.4420 o          1 BGV      -0.487000
@<TRIPOS>BOND
     1     1    12 2   
     2     1    38 1   
     3     1    39 1   
     4     2    11 1   
     5     2    21 1   
     6     2    22 1   
     7     2    23 1   
     8     3    15 1   
     9     3    24 1   
    10     3    25 1   
    11     3    40 1   
    12     4    20 1   
    13     4    26 1   
    14     4    27 1   
    15     4    28 1   
    16     5    11 2   
    17     6     7 2   
    18     6    13 1   
    19     6    29 1   
    20     7    17 1   
    21     7    30 1   
    22     8    15 1   
    23     8    16 1   
    24     8    31 1   
    25     8    32 1   
    26     9    11 1   
    27     9    18 1   
    28    10    14 1   
    29    10    16 1   
    30    12    14 1   
    31    12    19 1   
    32    13    20 1   
    33    13    41 2   
    34    14    42 2   
    35    15    17 1   
    36    15    33 1   
    37    16    19 1   
    38    16    34 1   
    39    17    20 1   
    40    17    35 1   
    41    18    19 1   
    42    18    20 1   
    43    18    36 1   
    44    19    37 1   
@<TRIPOS>SUBSTRUCTURE
     1 BGV         1 TEMP              0 ****  ****    0 ROOT
