@<TRIPOS>MOLECULE
BGW
   45    48     1     0     0
SMALL
bcc


@<TRIPOS>ATOM
      1 C1           5.5850    -0.2540     0.9000 c6         1 BGW      -0.051900
      2 C2           4.8580    -1.4350     0.2750 c6         1 BGW       0.163800
      3 C11          0.3280    -2.7050    -1.0320 ca         1 BGW      -0.111500
      4 C12          1.2280    -2.2420    -0.0790 ca         1 BGW      -0.051300
      5 C13          0.7320    -1.7280     1.1170 ca         1 BGW      -0.111500
      6 C14         -0.6310    -1.6780     1.3610 ca         1 BGW      -0.125000
      7 C15         -1.5020    -2.1520     0.3930 ca         1 BGW       0.050100
      8 C16          2.7140    -2.3370    -0.3150 c3         1 BGW       0.210100
      9 C18         -5.8770     2.8940    -0.6550 ca         1 BGW      -0.136000
     10 C19         -6.8590     2.0590    -0.1160 ca         1 BGW      -0.128000
     11 C20         -6.5520     0.7800     0.3150 ca         1 BGW      -0.090000
     12 C21         -4.5650     2.4630    -0.7720 ca         1 BGW      -0.079000
     13 C22         -4.2630     1.1800    -0.3390 ca         1 BGW      -0.065100
     14 C23         -5.2380     0.3300     0.2050 ca         1 BGW       0.126400
     15 C25         -3.5340    -1.0180     0.3600 cc         1 BGW       0.621500
     16 N3           3.4310    -1.1840     0.1770 n3         1 BGW      -0.720600
     17 C4           3.1610    -0.0030    -0.6240 c6         1 BGW       0.163800
     18 C5           3.8330     1.2320    -0.0450 c6         1 BGW      -0.051900
     19 C6           5.3370     1.0240     0.1120 c6         1 BGW      -0.190700
     20 C7           6.0370     2.2720     0.6870 c          1 BGW       0.932600
     21 O8           5.7230     3.3670     0.1750 o          1 BGW      -0.840800
     22 O9           6.8690     2.1030     1.6010 o          1 BGW      -0.840800
     23 C10         -1.0420    -2.6650    -0.8050 ca         1 BGW      -0.125000
     24 O17         -2.8670    -2.1300     0.6380 os         1 BGW      -0.297700
     25 N24         -4.7850    -0.9130     0.5920 nd         1 BGW      -0.587100
     26 S26         -2.7260     0.3660    -0.3560 ss         1 BGW      -0.131100
     27 H1           5.2410    -0.1290     1.9310 hc         1 BGW       0.049450
     28 H2           6.6520    -0.4790     0.9490 hc         1 BGW       0.049450
     29 H3           5.2970    -1.6470    -0.7180 h1         1 BGW       0.011450
     30 H4           5.0110    -2.3310     0.8820 h1         1 BGW       0.011450
     31 H5           0.6950    -3.0980    -1.9720 ha         1 BGW       0.151000
     32 H6           1.4230    -1.3510     1.8600 ha         1 BGW       0.151000
     33 H7          -1.0120    -1.2810     2.2930 ha         1 BGW       0.146000
     34 H8           3.0880    -3.2210     0.2130 h1         1 BGW       0.031200
     35 H9           2.9010    -2.5250    -1.3860 h1         1 BGW       0.031200
     36 H12         -7.3120     0.1320     0.7320 ha         1 BGW       0.146000
     37 H13         -3.8040     3.1090    -1.1890 ha         1 BGW       0.144000
     38 H15          3.5030    -0.1500    -1.6660 h1         1 BGW       0.011450
     39 H16          2.0800     0.1530    -0.6700 h1         1 BGW       0.011450
     40 H17          3.6310     2.0850    -0.6930 hc         1 BGW       0.049450
     41 H18          3.3860     1.4540     0.9300 hc         1 BGW       0.049450
     42 H19          5.7450     0.8730    -0.9000 hc         1 BGW       0.021700
     43 H21         -1.7360    -3.0290    -1.5520 ha         1 BGW       0.146000
     44 H10         -6.1410     3.8890    -0.9870 ha         1 BGW       0.129000
     45 H11         -7.8770     2.4170    -0.0370 ha         1 BGW       0.128000
@<TRIPOS>BOND
     1     1     2 1   
     2     1    19 1   
     3     1    27 1   
     4     1    28 1   
     5     2    16 1   
     6     2    29 1   
     7     2    30 1   
     8     3     4 ar  
     9     3    23 ar  
    10     3    31 1   
    11     4     5 ar  
    12     4     8 1   
    13     5     6 ar  
    14     5    32 1   
    15     6     7 ar  
    16     6    33 1   
    17     7    23 ar  
    18     7    24 1   
    19     8    16 1   
    20     8    34 1   
    21     8    35 1   
    22     9    10 ar  
    23     9    12 ar  
    24     9    44 1   
    25    10    11 ar  
    26    10    45 1   
    27    11    14 ar  
    28    11    36 1   
    29    12    13 ar  
    30    12    37 1   
    31    13    14 ar  
    32    13    26 1   
    33    14    25 1   
    34    15    24 1   
    35    15    25 2   
    36    15    26 1   
    37    16    17 1   
    38    17    18 1   
    39    17    38 1   
    40    17    39 1   
    41    18    19 1   
    42    18    40 1   
    43    18    41 1   
    44    19    20 1   
    45    19    42 1   
    46    20    21 1   
    47    20    22 1   
    48    23    43 1   
@<TRIPOS>SUBSTRUCTURE
     1 BGW         1 TEMP              0 ****  ****    0 ROOT
