@<TRIPOS>MOLECULE
BGW
   45    48     1     0     0
SMALL
No Charge or Current Charge


@<TRIPOS>ATOM
      1 C1           5.6970    -0.1780     0.6150 c6         1 BGW      -0.051900
      2 C2           4.9120    -1.4050     0.0840 c6         1 BGW       0.163800
      3 C11          0.2620    -2.3150    -0.9510 ca         1 BGW      -0.093500
      4 C12          1.1970    -2.3660     0.1030 ca         1 BGW      -0.051300
      5 C13          0.7400    -2.3530     1.4350 ca         1 BGW      -0.093500
      6 C14         -0.6360    -2.2780     1.7140 ca         1 BGW      -0.107000
      7 C15         -1.5630    -2.1970     0.6620 ca         1 BGW       0.050100
      8 C16          2.6940    -2.4390    -0.1920 c3         1 BGW       0.210100
      9 C18         -5.7340     2.9580    -0.7010 ca         1 BGW      -0.118000
     10 C19         -6.7910     2.0490    -0.4870 ca         1 BGW      -0.110000
     11 C20         -6.5160     0.7210    -0.1010 ca         1 BGW      -0.072000
     12 C21         -4.4000     2.5430    -0.5290 ca         1 BGW      -0.061000
     13 C22         -4.1550     1.2150    -0.1470 ca         1 BGW      -0.192000
     14 C23         -5.1830     0.3110     0.0640 ca         1 BGW       0.126400
     15 C25         -3.4780    -0.9960     0.4580 cc         1 BGW       0.621500
     16 N3           3.4400    -1.2240     0.2140 n3         1 BGW      -0.720600
     17 C4           2.9820     0.0040    -0.4970 c6         1 BGW       0.163800
     18 C5           3.7080     1.2750     0.0140 c6         1 BGW      -0.051900
     19 C6           5.2500     1.1290    -0.0960 c6         1 BGW      -0.190700
     20 C7           6.0020     2.3750     0.4290 c          1 BGW       0.722000
     21 O8           6.6960     2.9980    -0.3620 o          1 BGW      -0.735500
     22 O9           5.8740     2.6840     1.6040 o          1 BGW      -0.735500
     23 C10         -1.1150    -2.2390    -0.6740 ca         1 BGW      -0.107000
     24 O17         -2.9070    -2.1470     0.9590 os         1 BGW      -0.297700
     25 N24         -4.8160    -0.9750     0.4460 nd         1 BGW      -0.587100
     26 S26         -2.5700     0.5090     0.1350 ss         1 BGW      -0.004200
     27 H1           5.5400    -0.0920     1.6990 hc         1 BGW       0.049450
     28 H2           6.7730    -0.3380     0.4670 hc         1 BGW       0.049450
     29 H3           5.1780    -1.5710    -0.9710 h1         1 BGW       0.011450
     30 H4           5.2340    -2.2960     0.6420 h1         1 BGW       0.011450
     31 H5           0.6020    -2.3340    -1.9840 ha         1 BGW       0.133000
     32 H6           1.4560    -2.3970     2.2530 ha         1 BGW       0.133000
     33 H7          -0.9820    -2.2710     2.7450 ha         1 BGW       0.128000
     34 H8           3.0950    -3.3130     0.3390 h1         1 BGW       0.031200
     35 H9           2.8420    -2.6270    -1.2650 h1         1 BGW       0.031200
     36 H12         -7.3280     0.0180     0.0660 ha         1 BGW       0.128000
     37 H13         -3.5790     3.2390    -0.6880 ha         1 BGW       0.126000
     38 H15          3.1590    -0.1000    -1.5780 h1         1 BGW       0.011450
     39 H16          1.9010     0.1480    -0.3600 h1         1 BGW       0.011450
     40 H17          3.3700     2.1470    -0.5610 hc         1 BGW       0.049450
     41 H18          3.4190     1.4580     1.0580 hc         1 BGW       0.049450
     42 H19          5.4980     1.0270    -1.1620 hc         1 BGW       0.021700
     43 H21         -1.8270    -2.2150    -1.4950 ha         1 BGW       0.128000
     44 H10         -5.9500     3.9820    -0.9980 ha         1 BGW       0.111000
     45 H11         -7.8210     2.3720    -0.6180 ha         1 BGW       0.110000
@<TRIPOS>BOND
     1     1     2 1   
     2     1    19 1   
     3     1    27 1   
     4     1    28 1   
     5     2    16 1   
     6     2    29 1   
     7     2    30 1   
     8     3     4 ar  
     9     3    23 ar  
    10     3    31 1   
    11     4     5 ar  
    12     4     8 1   
    13     5     6 ar  
    14     5    32 1   
    15     6     7 ar  
    16     6    33 1   
    17     7    23 ar  
    18     7    24 1   
    19     8    16 1   
    20     8    34 1   
    21     8    35 1   
    22     9    10 ar  
    23     9    12 ar  
    24     9    44 1   
    25    10    11 ar  
    26    10    45 1   
    27    11    14 ar  
    28    11    36 1   
    29    12    13 ar  
    30    12    37 1   
    31    13    14 ar  
    32    13    26 1   
    33    14    25 1   
    34    15    24 1   
    35    15    25 2   
    36    15    26 1   
    37    16    17 1   
    38    17    18 1   
    39    17    38 1   
    40    17    39 1   
    41    18    19 1   
    42    18    40 1   
    43    18    41 1   
    44    19    20 1   
    45    19    42 1   
    46    20    21 1   
    47    20    22 1   
    48    23    43 1   
@<TRIPOS>SUBSTRUCTURE
     1 BGW         1 TEMP              0 ****  ****    0 ROOT
