@<TRIPOS>MOLECULE
BGX
   17    17     1     0     0
SMALL
abcg2


@<TRIPOS>ATOM
      1 C1          -1.1010    -3.8420     1.2400 c          1 BGX       0.706000
      2 C2          -1.9330    -2.7380     0.5390 c5         1 BGX       0.022500
      3 C3          -2.5960    -1.7530     1.5300 c5         1 BGX      -0.012500
      4 C4          -1.6210    -0.6040     1.4920 c2         1 BGX      -0.334200
      5 C5          -0.8340    -0.7430     0.4230 c2         1 BGX      -0.037000
      6 C6          -3.9950    -1.3210     1.0930 c3         1 BGX      -0.074100
      7 O1           0.0520    -4.0470     0.8130 o          1 BGX      -0.732000
      8 N1          -1.1180    -1.8830    -0.3260 nu         1 BGX      -0.755200
      9 O2          -1.6840    -4.4670     2.1470 o          1 BGX      -0.732000
     10 HC2         -2.7000    -3.2530    -0.0540 h1         1 BGX       0.049700
     11 HC3         -2.6730    -2.2100     2.5190 hc         1 BGX       0.073700
     12 HC4         -1.6420     0.2450     2.1590 ha         1 BGX       0.164000
     13 HC5         -0.0630    -0.0650     0.0790 h4         1 BGX       0.166000
     14 HC61        -4.3970    -0.5550     1.7580 hc         1 BGX       0.015033
     15 HC62        -3.9790    -0.9080     0.0820 hc         1 BGX       0.015033
     16 HC63        -4.6900    -2.1640     1.1010 hc         1 BGX       0.015033
     17 HN1         -0.2910    -2.3720    -0.6450 hn         1 BGX       0.451000
@<TRIPOS>BOND
     1     1     2 1   
     2     1     7 1   
     3     1     9 1   
     4     2     3 1   
     5     2     8 1   
     6     2    10 1   
     7     3     4 1   
     8     3     6 1   
     9     3    11 1   
    10     4     5 2   
    11     4    12 1   
    12     5     8 1   
    13     5    13 1   
    14     6    14 1   
    15     6    15 1   
    16     6    16 1   
    17     8    17 1   
@<TRIPOS>SUBSTRUCTURE
     1 BGX         1 TEMP              0 ****  ****    0 ROOT
