@<TRIPOS>MOLECULE
BGX
   17    17     1     0     0
SMALL
No Charge or Current Charge


@<TRIPOS>ATOM
      1 C1          -1.5230    -4.0370     1.1300 c          1 BGX       0.706000
      2 C2          -1.8400    -2.6600     0.4130 c5         1 BGX       0.022500
      3 C3          -2.4340    -1.6430     1.4640 c5         1 BGX      -0.012500
      4 C4          -1.7270    -0.3580     1.1240 c2         1 BGX      -0.334200
      5 C5          -0.7580    -0.5870     0.2560 c2         1 BGX      -0.037000
      6 C6          -3.9730    -1.5160     1.4230 c3         1 BGX      -0.074100
      7 O1          -0.3780    -4.2800     1.4960 o          1 BGX      -0.732000
      8 N1          -0.6570    -1.8990    -0.1780 nu         1 BGX      -0.755200
      9 O2          -2.4080    -4.8790     1.2100 o          1 BGX      -0.732000
     10 HC2         -2.5820    -2.8660    -0.3710 h1         1 BGX       0.049700
     11 HC3         -2.1700    -1.9400     2.4870 hc         1 BGX       0.073700
     12 HC4         -1.9390     0.6180     1.5640 ha         1 BGX       0.164000
     13 HC5         -0.0510     0.1540    -0.1320 h4         1 BGX       0.166000
     14 HC61        -4.3260    -0.7800     2.1550 hc         1 BGX       0.015033
     15 HC62        -4.3190    -1.1970     0.4320 hc         1 BGX       0.015033
     16 HC63        -4.4520    -2.4740     1.6550 hc         1 BGX       0.015033
     17 HN1          0.2720    -2.3360    -0.1800 hn         1 BGX       0.451000
@<TRIPOS>BOND
     1     1     2 1   
     2     1     7 1   
     3     1     9 1   
     4     2     3 1   
     5     2     8 1   
     6     2    10 1   
     7     3     4 1   
     8     3     6 1   
     9     3    11 1   
    10     4     5 2   
    11     4    12 1   
    12     5     8 1   
    13     5    13 1   
    14     6    14 1   
    15     6    15 1   
    16     6    16 1   
    17     8    17 1   
@<TRIPOS>SUBSTRUCTURE
     1 BGX         1 TEMP              0 ****  ****    0 ROOT
