@<TRIPOS>MOLECULE
BGY
   85    89     1     0     0
SMALL
bcc


@<TRIPOS>ATOM
      1 C13         -1.7970     5.6150     0.9160 c3         1 BGY       0.171800
      2 C15         -1.6520     4.1330     0.6040 c3         1 BGY      -0.100400
      3 C17         -1.9270     3.2920     1.8430 c3         1 BGY       0.054300
      4 C22         -2.4230    -0.0190     0.8340 cc         1 BGY       0.384800
      5 C23         -1.0760    -0.1530     1.2340 cc         1 BGY      -0.269600
      6 C24         -0.7330     1.0930     1.7040 cd         1 BGY      -0.094600
      7 C30          0.6000     1.4710     2.2400 c6         1 BGY      -0.034100
      8 C31          1.3600     0.1710     2.5050 c6         1 BGY       0.105000
      9 C33         -0.0910    -1.2790     1.1850 c6         1 BGY       0.174300
     10 C1          -2.5220     6.4040    -1.2480 c6         1 BGY       0.124800
     11 C3          -1.3020     7.8460     0.1870 c6         1 BGY       0.124800
     12 C39         -3.3190    -1.0100     0.2380 ca         1 BGY      -0.111500
     13 C4          -0.9510     8.7040    -1.0140 c6         1 BGY       0.129900
     14 C41         -3.0830    -2.3780     0.3600 ca         1 BGY      -0.094000
     15 C42         -3.9390    -3.3000    -0.2160 ca         1 BGY      -0.127000
     16 C43         -5.0540    -2.8750    -0.9220 ca         1 BGY       0.052400
     17 C44         -5.3070    -1.5120    -1.0460 ca         1 BGY       0.051900
     18 C45         -4.4460    -0.5920    -0.4720 ca         1 BGY      -0.069000
     19 C56          2.2080    -0.9340     0.4420 c          1 BGY       0.675100
     20 C58          3.5310    -0.2210     0.6590 c3         1 BGY      -0.151400
     21 C6          -2.1480     7.2960    -2.4170 c6         1 BGY       0.129900
     22 C60          4.5990    -0.5490    -0.3770 c6         1 BGY      -0.049700
     23 C62          5.7130     0.4960    -0.3310 c6         1 BGY      -0.100900
     24 C63          6.8270     0.1650    -1.3170 c6         1 BGY       0.108000
     25 C65          6.3290    -2.2050    -1.1610 c6         1 BGY       0.108000
     26 C66          5.1960    -1.9420    -0.1750 c6         1 BGY      -0.100900
     27 C81         10.6850    -0.3780     0.0170 c3         1 BGY       0.201800
     28 C83         11.5650    -1.2490    -0.8720 c3         1 BGY      -0.108100
     29 C85         10.7550    -0.8070     1.4770 c3         1 BGY      -0.108100
     30 C87         11.1110     1.0800    -0.1150 c3         1 BGY      -0.108100
     31 I54         -6.9740    -0.8010    -2.1010 i          1 BGY      -0.147900
     32 N19         -1.8220     1.8750     1.5740 na         1 BGY       0.129400
     33 N2          -1.4980     6.4660    -0.2210 n3         1 BGY      -0.714600
     34 N21         -2.8460     1.2210     1.0440 nd         1 BGY      -0.514800
     35 N32          1.2480    -0.7430     1.3810 n          1 BGY      -0.482800
     36 N64          7.3440    -1.1710    -1.0750 n          1 BGY      -0.471800
     37 O5          -1.9440     8.6310    -2.0130 os         1 BGY      -0.400600
     38 O73          2.0170    -1.6410    -0.5380 o          1 BGY      -0.595100
     39 O77          8.9220    -2.5670    -0.2300 o          1 BGY      -0.603000
     40 O79          9.3140    -0.3560    -0.4570 os         1 BGY      -0.454900
     41 CL2         -6.0920    -4.0590    -1.6220 cl         1 BGY      -0.081400
     42 H1          -2.8080     5.8130     1.3120 h1         1 BGY       0.031200
     43 H2          -1.0970     5.8720     1.7170 h1         1 BGY       0.031200
     44 H3          -2.3430     3.8260    -0.1840 hc         1 BGY       0.064700
     45 H4          -0.6400     3.9370     0.2400 hc         1 BGY       0.064700
     46 H5          -1.2240     3.5370     2.6410 h1         1 BGY       0.065200
     47 H6          -2.9300     3.4810     2.2270 h1         1 BGY       0.065200
     48 H7           1.1460     2.0980     1.5280 hc         1 BGY       0.060700
     49 H8           0.5210     2.0390     3.1690 hc         1 BGY       0.060700
     50 H9           2.4000     0.3780     2.7350 h1         1 BGY       0.057700
     51 H10          0.9380    -0.3230     3.3840 h1         1 BGY       0.057700
     52 H11         -0.2960    -2.0220     1.9640 h1         1 BGY       0.071200
     53 H12         -0.1270    -1.7990     0.2300 h1         1 BGY       0.071200
     54 H13         -3.5090     6.7050    -0.8530 h1         1 BGY       0.041950
     55 H14         -2.6250     5.3830    -1.6190 h1         1 BGY       0.041950
     56 H15         -0.4810     7.8990     0.9060 h1         1 BGY       0.041950
     57 H16         -2.1970     8.2590     0.6820 h1         1 BGY       0.041950
     58 H17         -0.8640     9.7490    -0.7130 h1         1 BGY       0.052200
     59 H18          0.0220     8.3860    -1.4150 h1         1 BGY       0.052200
     60 H19         -2.2380    -2.7470     0.9230 ha         1 BGY       0.140000
     61 H20         -3.7410    -4.3580    -0.1090 ha         1 BGY       0.150000
     62 H21         -4.6390     0.4670    -0.5770 ha         1 BGY       0.161000
     63 H22          3.3380     0.8580     0.6550 hc         1 BGY       0.057200
     64 H23          3.9200    -0.4450     1.6570 hc         1 BGY       0.057200
     65 H24         -1.2450     6.8980    -2.9010 h1         1 BGY       0.052200
     66 H25         -2.9510     7.2960    -3.1560 h1         1 BGY       0.052200
     67 H26          4.1510    -0.5130    -1.3770 hc         1 BGY       0.070700
     68 H27          5.3120     1.4860    -0.5670 hc         1 BGY       0.050450
     69 H28          6.1340     0.5540     0.6790 hc         1 BGY       0.050450
     70 H29          6.4300     0.1980    -2.3370 h1         1 BGY       0.061200
     71 H30          7.6220     0.9000    -1.2610 h1         1 BGY       0.061200
     72 H31          6.7780    -3.1790    -0.9860 h1         1 BGY       0.061200
     73 H32          5.9300    -2.2100    -2.1810 h1         1 BGY       0.061200
     74 H33          5.5800    -2.0330     0.8470 hc         1 BGY       0.050450
     75 H34          4.4320    -2.7100    -0.2990 hc         1 BGY       0.050450
     76 H35         11.4330    -0.9930    -1.9250 hc         1 BGY       0.048700
     77 H36         12.6110    -1.0730    -0.6200 hc         1 BGY       0.048700
     78 H37         11.3660    -2.3110    -0.7440 hc         1 BGY       0.048700
     79 H38         11.7720    -0.6580     1.8440 hc         1 BGY       0.048700
     80 H39         10.0890    -0.2030     2.0950 hc         1 BGY       0.048700
     81 H40         10.5020    -1.8560     1.6120 hc         1 BGY       0.048700
     82 H41         11.0510     1.4170    -1.1520 hc         1 BGY       0.048700
     83 H42         10.4870     1.7340     0.4950 hc         1 BGY       0.048700
     84 H43         12.1430     1.1970     0.2140 hc         1 BGY       0.048700
     85 C75          8.5610    -1.4490    -0.5530 c          1 BGY       0.772100
@<TRIPOS>BOND
     1     1     2 1   
     2     1    33 1   
     3     1    42 1   
     4     1    43 1   
     5     2     3 1   
     6     2    44 1   
     7     2    45 1   
     8     3    32 1   
     9     3    46 1   
    10     3    47 1   
    11     4     5 1   
    12     4    12 1   
    13     4    34 2   
    14     5     6 2   
    15     5     9 1   
    16     6     7 1   
    17     6    32 1   
    18     7     8 1   
    19     7    48 1   
    20     7    49 1   
    21     8    35 1   
    22     8    50 1   
    23     8    51 1   
    24     9    35 1   
    25     9    52 1   
    26     9    53 1   
    27    10    21 1   
    28    10    33 1   
    29    10    54 1   
    30    10    55 1   
    31    11    13 1   
    32    11    33 1   
    33    11    56 1   
    34    11    57 1   
    35    12    14 ar  
    36    12    18 ar  
    37    13    37 1   
    38    13    58 1   
    39    13    59 1   
    40    14    15 ar  
    41    14    60 1   
    42    15    16 ar  
    43    15    61 1   
    44    16    17 ar  
    45    16    41 1   
    46    17    18 ar  
    47    17    31 1   
    48    18    62 1   
    49    19    20 1   
    50    19    35 1   
    51    19    38 2   
    52    20    22 1   
    53    20    63 1   
    54    20    64 1   
    55    21    37 1   
    56    21    65 1   
    57    21    66 1   
    58    22    23 1   
    59    22    26 1   
    60    22    67 1   
    61    23    24 1   
    62    23    68 1   
    63    23    69 1   
    64    24    36 1   
    65    24    70 1   
    66    24    71 1   
    67    25    26 1   
    68    25    36 1   
    69    25    72 1   
    70    25    73 1   
    71    26    74 1   
    72    26    75 1   
    73    27    28 1   
    74    27    29 1   
    75    27    30 1   
    76    27    40 1   
    77    28    76 1   
    78    28    77 1   
    79    28    78 1   
    80    29    79 1   
    81    29    80 1   
    82    29    81 1   
    83    30    82 1   
    84    30    83 1   
    85    30    84 1   
    86    32    34 1   
    87    36    85 1   
    88    39    85 2   
    89    40    85 1   
@<TRIPOS>SUBSTRUCTURE
     1 BGY         1 TEMP              0 ****  ****    0 ROOT
