@<TRIPOS>MOLECULE
BGY
   85    89     1     0     0
SMALL
No Charge or Current Charge


@<TRIPOS>ATOM
      1 C13         -2.4510     5.7830     0.7190 c3         1 BGY       0.171800
      2 C15         -2.1160     4.3020     0.4490 c3         1 BGY      -0.100400
      3 C17         -2.7260     3.3560     1.5040 c3         1 BGY       0.083600
      4 C22         -2.6910    -0.0620     0.5480 cc         1 BGY       0.319500
      5 C23         -1.4030     0.0060     1.1480 cc         1 BGY      -0.204300
      6 C24         -1.2340     1.2770     1.5920 cd         1 BGY      -0.145300
      7 C30          0.0250     1.7840     2.2530 c6         1 BGY      -0.034100
      8 C31          0.8810     0.5750     2.7030 c6         1 BGY       0.105000
      9 C33         -0.3290    -1.0560     1.2420 c6         1 BGY       0.174300
     10 C1          -2.1100     6.6040    -1.6220 c6         1 BGY       0.124800
     11 C3          -1.9370     8.1610     0.2760 c6         1 BGY       0.124800
     12 C39         -3.3750    -1.2340    -0.0550 ca         1 BGY      -0.111500
     13 C4          -1.1820     9.1640    -0.6470 c6         1 BGY       0.153100
     14 C41         -2.9320    -2.5700     0.1130 ca         1 BGY      -0.076000
     15 C42         -3.6310    -3.6450    -0.4630 ca         1 BGY      -0.109000
     16 C43         -4.7970    -3.4190    -1.2080 ca         1 BGY       0.144000
     17 C44         -5.2710    -2.1050    -1.3680 ca         1 BGY       0.189000
     18 C45         -4.5720    -1.0320    -0.7910 ca         1 BGY      -0.051000
     19 C56          2.1730    -0.7500     0.9080 c          1 BGY       0.608100
     20 C58          3.4910    -0.0610     1.3280 c3         1 BGY      -0.151400
     21 C6          -1.3570     7.6430    -2.5060 c6         1 BGY       0.153100
     22 C60          4.7920    -0.4600     0.5620 c6         1 BGY      -0.049700
     23 C62          5.9390     0.5280     0.8580 c6         1 BGY      -0.100900
     24 C63          7.2260     0.1790     0.0740 c6         1 BGY       0.108000
     25 C65          6.5450    -2.2740     0.1450 c6         1 BGY       0.108000
     26 C66          5.2830    -1.8730     0.9410 c6         1 BGY      -0.100900
     27 C81         11.1380    -0.7060    -0.8960 c3         1 BGY       0.225000
     28 C83         11.1950    -1.3620    -2.3000 c3         1 BGY      -0.108100
     29 C85         11.9420    -1.4870     0.1750 c3         1 BGY      -0.108100
     30 C87         11.6470     0.7510    -0.9760 c3         1 BGY      -0.108100
     31 I54         -7.0850    -1.6850    -2.4990 i          1 BGY      -0.285000
     32 N19         -2.4100     1.9400     1.2570 na         1 BGY       0.150800
     33 N2          -1.7560     6.7440    -0.1710 n3         1 BGY      -0.714600
     34 N21         -3.3130     1.1080     0.6120 nd         1 BGY      -0.514800
     35 N32          0.9840    -0.4480     1.6160 n          1 BGY      -0.415800
     36 N64          7.6410    -1.2590     0.1270 n          1 BGY      -0.404800
     37 O5          -1.5950     8.9860    -2.0230 os         1 BGY      -0.447000
     38 O73          2.1510    -1.5460    -0.0220 o          1 BGY      -0.595100
     39 O77          9.2470    -2.8270    -0.4300 o          1 BGY      -0.554000
     40 O79          9.7600    -0.5760    -0.4740 os         1 BGY      -0.478100
     41 Cl2         -5.6470    -4.7940    -1.9140 cl         1 BGY      -0.173000
     42 H1          -3.5390     5.9200     0.6420 h1         1 BGY       0.031200
     43 H2          -2.1750     6.0000     1.7610 h1         1 BGY       0.031200
     44 H3          -2.4890     4.0090    -0.5390 hc         1 BGY       0.064700
     45 H4          -1.0270     4.1770     0.4370 hc         1 BGY       0.064700
     46 H5          -2.3500     3.6250     2.4990 h1         1 BGY       0.065200
     47 H6          -3.8170     3.4750     1.5150 h1         1 BGY       0.065200
     48 H7           0.6000     2.3970     1.5460 hc         1 BGY       0.060700
     49 H8          -0.2040     2.4230     3.1170 hc         1 BGY       0.060700
     50 H9           1.8600     0.9290     3.0460 h1         1 BGY       0.057700
     51 H10          0.3970     0.1050     3.5710 h1         1 BGY       0.057700
     52 H11         -0.5930    -1.7990     2.0090 h1         1 BGY       0.071200
     53 H12         -0.2460    -1.5820     0.2810 h1         1 BGY       0.071200
     54 H13         -3.1930     6.7400    -1.7650 h1         1 BGY       0.041950
     55 H14         -1.8590     5.6010    -1.9910 h1         1 BGY       0.041950
     56 H15         -1.5690     8.2870     1.3050 h1         1 BGY       0.041950
     57 H16         -3.0050     8.4250     0.2810 h1         1 BGY       0.041950
     58 H17         -1.3980    10.1950    -0.3360 h1         1 BGY       0.052200
     59 H18         -0.0970     9.0020    -0.5690 h1         1 BGY       0.052200
     60 H19         -2.0640    -2.8120     0.7110 ha         1 BGY       0.122000
     61 H20         -3.2720    -4.6620    -0.3220 ha         1 BGY       0.132000
     62 H21         -4.9700    -0.0320    -0.9400 ha         1 BGY       0.143000
     63 H22          3.3060     1.0180     1.2670 hc         1 BGY       0.057200
     64 H23          3.6100    -0.1850     2.4110 hc         1 BGY       0.057200
     65 H24         -0.2760     7.4370    -2.4870 h1         1 BGY       0.052200
     66 H25         -1.7010     7.5680    -3.5470 h1         1 BGY       0.052200
     67 H26          4.5620    -0.4220    -0.5130 hc         1 BGY       0.070700
     68 H27          5.6330     1.5540     0.6100 hc         1 BGY       0.050450
     69 H28          6.1610     0.5240     1.9340 hc         1 BGY       0.050450
     70 H29          7.0810     0.4520    -0.9810 h1         1 BGY       0.061200
     71 H30          8.0330     0.8170     0.4610 h1         1 BGY       0.061200
     72 H31          6.9280    -3.2190     0.5580 h1         1 BGY       0.061200
     73 H32          6.2550    -2.4770    -0.8960 h1         1 BGY       0.061200
     74 H33          5.5070    -1.9130     2.0160 hc         1 BGY       0.050450
     75 H34          4.4960    -2.6190     0.7640 hc         1 BGY       0.050450
     76 H35         10.4810    -0.8840    -2.9820 hc         1 BGY       0.048700
     77 H36         12.1970    -1.2550    -2.7310 hc         1 BGY       0.048700
     78 H37         10.9730    -2.4340    -2.2620 hc         1 BGY       0.048700
     79 H38         13.0190    -1.3910    -0.0110 hc         1 BGY       0.048700
     80 H39         11.7370    -1.0940     1.1790 hc         1 BGY       0.048700
     81 H40         11.7070    -2.5560     0.1670 hc         1 BGY       0.048700
     82 H41         11.0580     1.3300    -1.6980 hc         1 BGY       0.048700
     83 H42         11.5710     1.2450     0.0000 hc         1 BGY       0.048700
     84 H43         12.6960     0.7810    -1.2920 hc         1 BGY       0.048700
     85 C75          8.9320    -1.6560    -0.2790 c          1 BGY       0.656100
@<TRIPOS>BOND
     1     1     2 1   
     2     1    33 1   
     3     1    42 1   
     4     1    43 1   
     5     2     3 1   
     6     2    44 1   
     7     2    45 1   
     8     3    32 1   
     9     3    46 1   
    10     3    47 1   
    11     4     5 1   
    12     4    12 1   
    13     4    34 2   
    14     5     6 2   
    15     5     9 1   
    16     6     7 1   
    17     6    32 1   
    18     7     8 1   
    19     7    48 1   
    20     7    49 1   
    21     8    35 1   
    22     8    50 1   
    23     8    51 1   
    24     9    35 1   
    25     9    52 1   
    26     9    53 1   
    27    10    21 1   
    28    10    33 1   
    29    10    54 1   
    30    10    55 1   
    31    11    13 1   
    32    11    33 1   
    33    11    56 1   
    34    11    57 1   
    35    12    14 ar  
    36    12    18 ar  
    37    13    37 1   
    38    13    58 1   
    39    13    59 1   
    40    14    15 ar  
    41    14    60 1   
    42    15    16 ar  
    43    15    61 1   
    44    16    17 ar  
    45    16    41 1   
    46    17    18 ar  
    47    17    31 1   
    48    18    62 1   
    49    19    20 1   
    50    19    35 1   
    51    19    38 2   
    52    20    22 1   
    53    20    63 1   
    54    20    64 1   
    55    21    37 1   
    56    21    65 1   
    57    21    66 1   
    58    22    23 1   
    59    22    26 1   
    60    22    67 1   
    61    23    24 1   
    62    23    68 1   
    63    23    69 1   
    64    24    36 1   
    65    24    70 1   
    66    24    71 1   
    67    25    26 1   
    68    25    36 1   
    69    25    72 1   
    70    25    73 1   
    71    26    74 1   
    72    26    75 1   
    73    27    28 1   
    74    27    29 1   
    75    27    30 1   
    76    27    40 1   
    77    28    76 1   
    78    28    77 1   
    79    28    78 1   
    80    29    79 1   
    81    29    80 1   
    82    29    81 1   
    83    30    82 1   
    84    30    83 1   
    85    30    84 1   
    86    32    34 1   
    87    36    85 1   
    88    39    85 2   
    89    40    85 1   
@<TRIPOS>SUBSTRUCTURE
     1 BGY         1 TEMP              0 ****  ****    0 ROOT
