@<TRIPOS>MOLECULE
BGZ
   86    87     1     0     0
SMALL
No Charge or Current Charge


@<TRIPOS>ATOM
      1 C16          0.0820    -2.2090     1.1270 ce         1 BGZ      -0.155000
      2 C15          1.5010    -0.9670    -0.5710 c3         1 BGZ      -0.049900
      3 C14          1.2880    -1.7260     0.7400 c2         1 BGZ      -0.138400
      4 C17         -1.1690    -2.0910     0.3640 ce         1 BGZ      -0.193000
      5 C18         -2.3530    -2.5610     0.8120 c2         1 BGZ      -0.193200
      6 C13          2.5380    -1.9260     1.6190 c3         1 BGZ       0.221500
      7 C11          2.7930    -0.7100     2.5670 c3         1 BGZ      -0.023500
      8 C2           5.1310    -3.0210    -0.8830 c3         1 BGZ      -0.175400
      9 C3           5.1220    -1.7210    -1.7290 c3         1 BGZ       0.187300
     10 C4           5.7180    -0.5050    -0.9640 c3         1 BGZ      -0.068400
     11 C5           5.3330     0.8900    -1.5320 c3         1 BGZ      -0.059400
     12 C6           5.5590     2.1240    -0.5840 c3         1 BGZ       0.183000
     13 C1           3.8510    -3.1560    -0.0490 c          1 BGZ       0.600100
     14 C7           6.9520     2.0760     0.0970 c3         1 BGZ      -0.124100
     15 O8          -8.4880     2.4000     0.9690 oh         1 BGZ      -0.653000
     16 C22         -5.7540    -0.9710    -0.2260 cx         1 BGZ       0.084300
     17 C26         -8.8750     1.4120     0.0030 c3         1 BGZ       0.172300
     18 C24         -7.6120     0.8330    -0.7020 c3         1 BGZ      -0.084700
     19 O7          -7.0120    -1.3990     0.3460 op         1 BGZ      -0.437000
     20 C27         -9.9110     2.0280    -0.9730 c3         1 BGZ      -0.108400
     21 O2           2.9470    -3.9270    -0.3400 o          1 BGZ      -0.488000
     22 O1           3.7320    -2.1130     0.8300 os         1 BGZ      -0.448100
     23 O3           5.8860    -1.9330    -2.9200 oh         1 BGZ      -0.660000
     24 O4           5.6200     3.2750    -1.4400 oh         1 BGZ      -0.661000
     25 C23         -6.7610     0.0240     0.2790 cx         1 BGZ       0.096300
     26 O5           3.1270     2.5340    -0.1800 os         1 BGZ      -0.446100
     27 C21         -4.4900    -1.2510     0.5810 c3         1 BGZ      -0.064400
     28 C19         -3.6730    -2.4650     0.0720 c3         1 BGZ      -0.023500
     29 C20         -4.4550    -3.7950     0.1740 c3         1 BGZ      -0.084100
     30 C10          3.0120     0.5860     1.7870 c2         1 BGZ      -0.174200
     31 C9           4.1880     1.1630     1.4610 c2         1 BGZ      -0.232200
     32 C8           4.3950     2.3290     0.4920 c3         1 BGZ       0.182500
     33 C29          2.7790     3.7780    -0.6310 c          1 BGZ       0.609100
     34 C30          1.4140     3.7670    -1.3020 c3         1 BGZ      -0.156100
     35 C12          3.9110    -0.9940     3.6010 c3         1 BGZ      -0.093100
     36 H1           0.0040    -2.7380     2.0790 ha         1 BGZ       0.174000
     37 H2           0.7360    -0.1940    -0.7090 hc         1 BGZ       0.043367
     38 H3           2.4670    -0.4540    -0.6210 hc         1 BGZ       0.043367
     39 H4           1.4470    -1.6460    -1.4290 hc         1 BGZ       0.043367
     40 H5          -1.1220    -1.6000    -0.6090 ha         1 BGZ       0.171000
     41 H6          -2.4170    -3.0520     1.7850 ha         1 BGZ       0.172000
     42 H7           2.3800    -2.8140     2.2480 h1         1 BGZ       0.065700
     43 H8           1.8760    -0.5800     3.1560 hc         1 BGZ       0.066700
     44 H9           5.2260    -3.9030    -1.5260 hc         1 BGZ       0.079200
     45 H10          5.9850    -2.9500    -0.1990 hc         1 BGZ       0.079200
     46 H11          4.0810    -1.4960    -2.0000 h1         1 BGZ       0.041700
     47 H12          5.4160    -0.5630     0.0790 hc         1 BGZ       0.055200
     48 H13          6.8120    -0.5970    -0.9480 hc         1 BGZ       0.055200
     49 H14          5.9080     1.0350    -2.4560 hc         1 BGZ       0.062700
     50 H15          4.2810     0.8730    -1.8400 hc         1 BGZ       0.062700
     51 H16          7.7480     1.9960    -0.6530 hc         1 BGZ       0.045033
     52 H17          7.1300     2.9860     0.6820 hc         1 BGZ       0.045033
     53 H18          7.0500     1.2220     0.7760 hc         1 BGZ       0.045033
     54 H19         -8.1820     3.1830     0.4640 ho         1 BGZ       0.435000
     55 H20         -5.6580    -1.1000    -1.3050 h1         1 BGZ       0.079700
     56 H21         -9.3700     0.5730     0.5140 h1         1 BGZ       0.084700
     57 H25         -7.9760     0.1370    -1.4690 hc         1 BGZ       0.061700
     58 H26        -11.1020     3.1860     0.4580 hc         1 BGZ       0.036700
     59 H27        -11.9500     2.8020    -1.0530 hc         1 BGZ       0.036700
     60 H28        -11.7100     1.5390     0.1720 hc         1 BGZ       0.036700
     61 H29         -9.4930     2.9180    -1.4580 hc         1 BGZ       0.040700
     62 H30        -10.1210     1.3040    -1.7700 hc         1 BGZ       0.040700
     63 H31          5.3880    -2.5710    -3.4760 ho         1 BGZ       0.440000
     64 H32          4.9510     3.9180    -1.1030 ho         1 BGZ       0.450000
     65 H33         -6.5580     0.5120     1.2330 h1         1 BGZ       0.093700
     66 H34         -3.8500    -0.3610     0.5430 hc         1 BGZ       0.053200
     67 H35         -4.7420    -1.4030     1.6380 hc         1 BGZ       0.053200
     68 H36         -3.4630    -2.2980    -0.9920 hc         1 BGZ       0.047700
     69 H37         -3.8390    -4.6290    -0.1820 hc         1 BGZ       0.041033
     70 H38         -4.7440    -4.0010     1.2120 hc         1 BGZ       0.041033
     71 H39         -5.3650    -3.7660    -0.4370 hc         1 BGZ       0.041033
     72 H40          2.0780     0.9970     1.3990 ha         1 BGZ       0.184000
     73 H41          5.1160     0.7530     1.8540 ha         1 BGZ       0.177000
     74 H42          4.6440     3.2060     1.1060 h1         1 BGZ       0.067700
     75 H43          0.6740     3.3910    -0.5870 hc         1 BGZ       0.069367
     76 H44          1.1350     4.7470    -1.7050 hc         1 BGZ       0.069367
     77 H45          1.4070     2.9900    -2.0740 hc         1 BGZ       0.069367
     78 H46          4.8670    -1.2090     3.1090 hc         1 BGZ       0.039700
     79 H47          4.0490    -0.1330     4.2650 hc         1 BGZ       0.039700
     80 H48          3.6490    -1.8600     4.2200 hc         1 BGZ       0.039700
     81 C28        -11.2490     2.4120    -0.3050 c3         1 BGZ      -0.085100
     82 C25         -6.7510     1.8920    -1.4420 c3         1 BGZ      -0.091100
     83 O6           3.4960     4.7660    -0.5580 o          1 BGZ      -0.496000
     84 H22         -7.3370     2.4250    -2.1980 hc         1 BGZ       0.037367
     85 H23         -6.3350     2.6270    -0.7420 hc         1 BGZ       0.037367
     86 H24         -5.9120     1.4120    -1.9590 hc         1 BGZ       0.037367
@<TRIPOS>BOND
     1     1     3 2   
     2     1     4 1   
     3     1    36 1   
     4     2     3 1   
     5     2    37 1   
     6     2    38 1   
     7     2    39 1   
     8     3     6 1   
     9     4     5 2   
    10     4    40 1   
    11     5    28 1   
    12     5    41 1   
    13     6     7 1   
    14     6    22 1   
    15     6    42 1   
    16     7    30 1   
    17     7    35 1   
    18     7    43 1   
    19     8     9 1   
    20     8    13 1   
    21     8    44 1   
    22     8    45 1   
    23     9    10 1   
    24     9    23 1   
    25     9    46 1   
    26    10    11 1   
    27    10    47 1   
    28    10    48 1   
    29    11    12 1   
    30    11    49 1   
    31    11    50 1   
    32    12    14 1   
    33    12    24 1   
    34    12    32 1   
    35    13    21 2   
    36    13    22 1   
    37    14    51 1   
    38    14    52 1   
    39    14    53 1   
    40    15    17 1   
    41    15    54 1   
    42    16    19 1   
    43    16    25 1   
    44    16    27 1   
    45    16    55 1   
    46    17    18 1   
    47    17    20 1   
    48    17    56 1   
    49    18    25 1   
    50    18    57 1   
    51    18    82 1   
    52    19    25 1   
    53    20    61 1   
    54    20    62 1   
    55    20    81 1   
    56    23    63 1   
    57    24    64 1   
    58    25    65 1   
    59    26    32 1   
    60    26    33 1   
    61    27    28 1   
    62    27    66 1   
    63    27    67 1   
    64    28    29 1   
    65    28    68 1   
    66    29    69 1   
    67    29    70 1   
    68    29    71 1   
    69    30    31 2   
    70    30    72 1   
    71    31    32 1   
    72    31    73 1   
    73    32    74 1   
    74    33    34 1   
    75    33    83 2   
    76    34    75 1   
    77    34    76 1   
    78    34    77 1   
    79    35    78 1   
    80    35    79 1   
    81    35    80 1   
    82    58    81 1   
    83    59    81 1   
    84    60    81 1   
    85    82    84 1   
    86    82    85 1   
    87    82    86 1   
@<TRIPOS>SUBSTRUCTURE
     1 BGZ         1 TEMP              0 ****  ****    0 ROOT
