@<TRIPOS>MOLECULE
BGZ
   86    87     1     0     0
SMALL
abcg2


@<TRIPOS>ATOM
      1 C16         -0.2260    -1.4250     0.5790 ce         1 BGZ      -0.155000
      2 C15          1.2220    -0.2330    -1.0790 c3         1 BGZ      -0.049900
      3 C14          0.9750    -0.9450     0.2200 c2         1 BGZ      -0.138400
      4 C17         -1.4600    -1.3020    -0.1750 ce         1 BGZ      -0.193000
      5 C18         -2.6310    -1.7880     0.2500 c2         1 BGZ      -0.193200
      6 C13          2.1090    -1.0980     1.2000 c3         1 BGZ       0.221500
      7 C11          2.5660     0.2030     1.9040 c3         1 BGZ      -0.023500
      8 C2           4.7180    -3.2180    -0.3940 c3         1 BGZ      -0.175400
      9 C3           5.3100    -2.0690    -1.2230 c3         1 BGZ       0.187300
     10 C4           6.0930    -1.0630    -0.3920 c3         1 BGZ      -0.068400
     11 C5           6.4120     0.2100    -1.1760 c3         1 BGZ      -0.059400
     12 C6           6.7670     1.4460    -0.3380 c3         1 BGZ       0.183000
     13 C1           3.4510    -2.9160     0.3710 c          1 BGZ       0.600100
     14 C7           7.7230     1.1070     0.8020 c3         1 BGZ      -0.124100
     15 O8          -9.9650     0.4140     1.7000 oh         1 BGZ      -0.653000
     16 C22         -6.1890    -0.4760    -0.3560 cx         1 BGZ       0.084300
     17 C26         -9.8360     0.3660     0.2920 c3         1 BGZ       0.172300
     18 C24         -8.4370     0.8080    -0.1660 c3         1 BGZ      -0.084700
     19 O7          -7.2560    -1.4020    -0.1720 op         1 BGZ      -0.437000
     20 C27        -10.9540     1.1250    -0.4160 c3         1 BGZ      -0.108400
     21 O2           2.7000    -3.7630     0.7870 o          1 BGZ      -0.488000
     22 O1           3.2720    -1.6160     0.5420 os         1 BGZ      -0.448100
     23 O3           6.2020    -2.5820    -2.1940 oh         1 BGZ      -0.660000
     24 O4           7.4020     2.3330    -1.2460 oh         1 BGZ      -0.661000
     25 C23         -7.3800    -0.1070     0.3980 cx         1 BGZ       0.096300
     26 O5           4.7180     2.6190    -0.8620 os         1 BGZ      -0.446100
     27 C21         -4.8790    -0.7590     0.3240 c3         1 BGZ      -0.064400
     28 C19         -3.9290    -1.6560    -0.4830 c3         1 BGZ      -0.023500
     29 C20         -4.5290    -3.0370    -0.7560 c3         1 BGZ      -0.084100
     30 C10          3.3830     1.0720     0.9880 c2         1 BGZ      -0.174200
     31 C9           4.6680     1.3630     1.1560 c2         1 BGZ      -0.232200
     32 C8           5.5160     2.1790     0.2310 c3         1 BGZ       0.182500
     33 C29          4.7660     3.8840    -1.2700 c          1 BGZ       0.609100
     34 C30          3.9130     4.0800    -2.4880 c3         1 BGZ      -0.156100
     35 C12          3.2660    -0.1380     3.2160 c3         1 BGZ      -0.093100
     36 H1          -0.3060    -1.9440     1.5300 ha         1 BGZ       0.174000
     37 H2           1.0300     0.8400    -0.9930 hc         1 BGZ       0.043367
     38 H3           2.2520    -0.3460    -1.4170 hc         1 BGZ       0.043367
     39 H4           0.5810    -0.6080    -1.8750 hc         1 BGZ       0.043367
     40 H5          -1.4310    -0.7760    -1.1250 ha         1 BGZ       0.171000
     41 H6          -2.6730    -2.3110     1.2050 ha         1 BGZ       0.172000
     42 H7           1.7920    -1.7940     1.9820 h1         1 BGZ       0.065700
     43 H8           1.6440     0.7410     2.1500 hc         1 BGZ       0.066700
     44 H9           4.4870    -4.0630    -1.0480 hc         1 BGZ       0.079200
     45 H10          5.4570    -3.5920     0.3240 hc         1 BGZ       0.079200
     46 H11          4.4840    -1.5400    -1.7200 h1         1 BGZ       0.041700
     47 H12          5.5150    -0.8210     0.4960 hc         1 BGZ       0.055200
     48 H13          7.0130    -1.5410    -0.0400 hc         1 BGZ       0.055200
     49 H14          7.2570     0.0200    -1.8420 hc         1 BGZ       0.062700
     50 H15          5.5670     0.4530    -1.8280 hc         1 BGZ       0.062700
     51 H16          8.6170     0.6170     0.4120 hc         1 BGZ       0.045033
     52 H17          8.0390     2.0120     1.3270 hc         1 BGZ       0.045033
     53 H18          7.2780     0.4400     1.5390 hc         1 BGZ       0.045033
     54 H19         -9.9790     1.3370     1.9750 ho         1 BGZ       0.435000
     55 H20         -6.1040    -0.0970    -1.3760 h1         1 BGZ       0.079700
     56 H21         -9.9440    -0.6940     0.0330 h1         1 BGZ       0.084700
     57 H25         -8.4160     0.7270    -1.2590 hc         1 BGZ       0.061700
     58 H26        -12.5500     0.7810     1.0210 hc         1 BGZ       0.036700
     59 H27        -13.1120     1.1730    -0.5990 hc         1 BGZ       0.036700
     60 H28        -12.4640    -0.4280    -0.2580 hc         1 BGZ       0.036700
     61 H29        -10.8740     2.1970    -0.2070 hc         1 BGZ       0.040700
     62 H30        -10.8070     1.0190    -1.4950 hc         1 BGZ       0.040700
     63 H31          5.6980    -3.0900    -2.8380 ho         1 BGZ       0.440000
     64 H32          7.7160     3.1050    -0.7620 ho         1 BGZ       0.450000
     65 H33         -7.2950    -0.0900     1.4860 h1         1 BGZ       0.093700
     66 H34         -4.3870     0.2010     0.5020 hc         1 BGZ       0.053200
     67 H35         -5.0630    -1.2020     1.3090 hc         1 BGZ       0.053200
     68 H36         -3.7340    -1.1650    -1.4440 hc         1 BGZ       0.047700
     69 H37         -3.8170    -3.6680    -1.2890 hc         1 BGZ       0.041033
     70 H38         -4.7930    -3.5410     0.1760 hc         1 BGZ       0.041033
     71 H39         -5.4310    -2.9710    -1.3650 hc         1 BGZ       0.041033
     72 H40          2.8660     1.4530     0.1160 ha         1 BGZ       0.184000
     73 H41          5.1950     1.0020     2.0320 ha         1 BGZ       0.177000
     74 H42          5.8860     3.0470     0.7900 h1         1 BGZ       0.067700
     75 H43          2.9020     3.7090    -2.3180 hc         1 BGZ       0.069367
     76 H44          3.8690     5.1310    -2.7580 hc         1 BGZ       0.069367
     77 H45          4.3270     3.5170    -3.3260 hc         1 BGZ       0.069367
     78 H46          4.1560    -0.7520     3.0610 hc         1 BGZ       0.039700
     79 H47          3.5730     0.7650     3.7440 hc         1 BGZ       0.039700
     80 H48          2.5930    -0.6910     3.8710 hc         1 BGZ       0.039700
     81 C28        -12.3460     0.6350    -0.0400 c3         1 BGZ      -0.085100
     82 C25         -8.0910     2.2450     0.2210 c3         1 BGZ      -0.091100
     83 O6           5.4010     4.7520    -0.7270 o          1 BGZ      -0.496000
     84 H22         -8.8290     2.9570    -0.1460 hc         1 BGZ       0.037367
     85 H23         -8.0150     2.3690     1.3030 hc         1 BGZ       0.037367
     86 H24         -7.1270     2.5300    -0.2010 hc         1 BGZ       0.037367
@<TRIPOS>BOND
     1     1     3 2   
     2     1     4 1   
     3     1    36 1   
     4     2     3 1   
     5     2    37 1   
     6     2    38 1   
     7     2    39 1   
     8     3     6 1   
     9     4     5 2   
    10     4    40 1   
    11     5    28 1   
    12     5    41 1   
    13     6     7 1   
    14     6    22 1   
    15     6    42 1   
    16     7    30 1   
    17     7    35 1   
    18     7    43 1   
    19     8     9 1   
    20     8    13 1   
    21     8    44 1   
    22     8    45 1   
    23     9    10 1   
    24     9    23 1   
    25     9    46 1   
    26    10    11 1   
    27    10    47 1   
    28    10    48 1   
    29    11    12 1   
    30    11    49 1   
    31    11    50 1   
    32    12    14 1   
    33    12    24 1   
    34    12    32 1   
    35    13    21 2   
    36    13    22 1   
    37    14    51 1   
    38    14    52 1   
    39    14    53 1   
    40    15    17 1   
    41    15    54 1   
    42    16    19 1   
    43    16    25 1   
    44    16    27 1   
    45    16    55 1   
    46    17    18 1   
    47    17    20 1   
    48    17    56 1   
    49    18    25 1   
    50    18    57 1   
    51    18    82 1   
    52    19    25 1   
    53    20    61 1   
    54    20    62 1   
    55    20    81 1   
    56    23    63 1   
    57    24    64 1   
    58    25    65 1   
    59    26    32 1   
    60    26    33 1   
    61    27    28 1   
    62    27    66 1   
    63    27    67 1   
    64    28    29 1   
    65    28    68 1   
    66    29    69 1   
    67    29    70 1   
    68    29    71 1   
    69    30    31 2   
    70    30    72 1   
    71    31    32 1   
    72    31    73 1   
    73    32    74 1   
    74    33    34 1   
    75    33    83 2   
    76    34    75 1   
    77    34    76 1   
    78    34    77 1   
    79    35    78 1   
    80    35    79 1   
    81    35    80 1   
    82    58    81 1   
    83    59    81 1   
    84    60    81 1   
    85    82    84 1   
    86    82    85 1   
    87    82    86 1   
@<TRIPOS>SUBSTRUCTURE
     1 BGZ         1 TEMP              0 ****  ****    0 ROOT
