@<TRIPOS>MOLECULE
BH0
   73    77     1     0     0
SMALL
No Charge or Current Charge


@<TRIPOS>ATOM
      1 C1          -0.1100    -3.4240     0.5000 c3         1 BH0       0.124700
      2 C2          -0.7850    -3.4970     1.9010 c3         1 BH0      -0.049100
      3 C3          -1.9160    -4.5170     1.9530 ca         1 BH0      -0.087300
      4 C4          -3.2560    -4.0910     2.0310 ca         1 BH0      -0.105500
      5 C5          -4.3000    -5.0320     2.0550 ca         1 BH0      -0.110500
      6 C6          -4.0090    -6.4060     2.0020 ca         1 BH0      -0.111000
      7 C7          -2.6740    -6.8370     1.9280 ca         1 BH0      -0.110500
      8 C8          -1.6310    -5.8960     1.9050 ca         1 BH0      -0.105500
      9 C9           1.2030    -2.5910     0.4400 c3         1 BH0       0.140300
     10 O1           2.1910    -3.1530     1.3310 oh         1 BH0      -0.652000
     11 C10          0.9820    -1.0940     0.7710 c3         1 BH0       0.189800
     12 N1          -0.0040    -0.4550    -0.1130 n3         1 BH0      -0.515500
     13 S1           0.6510     0.2360    -1.5500 sy         1 BH0       1.155600
     14 O2           1.3300    -0.8380    -2.2820 o          1 BH0      -0.527000
     15 N2          -1.4080    -0.7900     0.0040 n          1 BH0      -0.279200
     16 N3          -1.0880    -3.1330    -0.5990 n          1 BH0      -0.411800
     17 C11         -1.9320    -2.0000    -0.5270 c          1 BH0       0.619000
     18 O3          -3.0870    -2.0580    -0.9290 o          1 BH0      -0.550000
     19 C14         -1.5100    -4.2810    -1.4390 c3         1 BH0       0.153300
     20 C15         -2.3330     0.2770     0.4400 c3         1 BH0       0.176300
     21 C12         -0.8370     0.6730    -2.4690 ca         1 BH0      -0.277500
     22 C17         -0.2100    -6.4520    -1.7080 ca         1 BH0      -0.059500
     23 C18          0.8640    -7.1900    -2.2370 ca         1 BH0      -0.179500
     24 C19          1.7960    -6.5650    -3.0800 ca         1 BH0       0.143100
     25 C20          1.6570    -5.2060    -3.3960 ca         1 BH0      -0.179500
     26 C21          0.5840    -4.4660    -2.8700 ca         1 BH0      -0.059500
     27 C22         -0.3550    -5.0860    -2.0230 ca         1 BH0      -0.144300
     28 C23         -2.3930    -0.0680     2.9540 ca         1 BH0      -0.046000
     29 C24         -3.0720    -0.4020     4.1390 ca         1 BH0      -0.184500
     30 C25         -4.4360    -0.7280     4.0980 ca         1 BH0       0.149100
     31 C26         -5.1230    -0.7210     2.8750 ca         1 BH0      -0.184500
     32 C27         -4.4470    -0.3900     1.6880 ca         1 BH0      -0.046000
     33 C28         -3.0770    -0.0640     1.7230 ca         1 BH0      -0.147300
     34 O5          -5.1010    -1.0530     5.2420 oh         1 BH0      -0.530100
     35 C31         -1.4620    -0.2930    -3.2850 ca         1 BH0       0.024000
     36 C32         -1.3980     1.9610    -2.3490 ca         1 BH0       0.005000
     37 O8           1.3270     1.4780    -1.1560 o          1 BH0      -0.527000
     38 C33         -2.6510     0.0230    -3.9690 ca         1 BH0      -0.032000
     39 C34         -2.5810     2.2750    -3.0390 ca         1 BH0      -0.134000
     40 C13         -3.2090     1.3090    -3.8460 ca         1 BH0      -0.022000
     41 C16         -3.2950    -0.9700    -4.7810 cg         1 BH0       0.314000
     42 N4          -3.8100    -1.7790    -5.4460 n1         1 BH0      -0.432000
     43 H11          0.2420    -4.4490     0.3320 h1         1 BH0       0.080700
     44 H21         -1.1520    -2.5070     2.1880 hc         1 BH0       0.065700
     45 H22         -0.0310    -3.7640     2.6520 hc         1 BH0       0.065700
     46 H44         -3.4900    -3.0310     2.0650 ha         1 BH0       0.117500
     47 H55         -5.3320    -4.6950     2.1120 ha         1 BH0       0.113000
     48 H66         -4.8170    -7.1340     2.0200 ha         1 BH0       0.112000
     49 H77         -2.4480    -7.9010     1.8880 ha         1 BH0       0.113000
     50 H88         -0.6000    -6.2390     1.8450 ha         1 BH0       0.117500
     51 H99          1.5770    -2.6670    -0.5880 h1         1 BH0       0.052700
     52 H101         0.6400    -1.0120     1.8110 h1         1 BH0       0.072200
     53 H102         1.9460    -0.5690     0.7180 h1         1 BH0       0.072200
     54 H141        -2.1150    -3.9130    -2.2780 h1         1 BH0       0.069200
     55 H142        -2.1560    -4.9340    -0.8390 h1         1 BH0       0.069200
     56 H151        -3.0500     0.4800    -0.3670 h1         1 BH0       0.056700
     57 H152        -1.7610     1.2010     0.6000 h1         1 BH0       0.056700
     58 H117        -0.9270    -6.9420    -1.0520 ha         1 BH0       0.123000
     59 H118         0.9650    -8.2430    -1.9860 ha         1 BH0       0.122000
     60 H220         2.3810    -4.7230    -4.0470 ha         1 BH0       0.122000
     61 H221         0.4860    -3.4100    -3.1140 ha         1 BH0       0.123000
     62 H223        -1.3350     0.1820     2.9890 ha         1 BH0       0.120000
     63 H224        -2.5310    -0.4050     5.0820 ha         1 BH0       0.123000
     64 H226        -6.1790    -0.9750     2.8450 ha         1 BH0       0.123000
     65 H227        -4.9850    -0.3960     0.7420 ha         1 BH0       0.120000
     66 H331        -1.0380    -1.2930    -3.3770 ha         1 BH0       0.159000
     67 H332        -0.9310     2.7150    -1.7180 ha         1 BH0       0.132000
     68 H334        -3.0160     3.2670    -2.9440 ha         1 BH0       0.128000
     69 H113        -4.1290     1.5620    -4.3710 ha         1 BH0       0.131000
     70 HO1         -4.4690    -1.0040     5.9900 ho         1 BH0       0.466000
     71 HO2          2.7760    -8.1970    -3.2730 ho         1 BH0       0.464000
     72 HO3          3.0780    -2.8980     0.9920 ho         1 BH0       0.453000
     73 O4           2.8400    -7.2730    -3.5960 oh         1 BH0      -0.533100
@<TRIPOS>BOND
     1     1     2 1   
     2     1     9 1   
     3     1    16 1   
     4     1    43 1   
     5     2     3 1   
     6     2    44 1   
     7     2    45 1   
     8     3     4 ar  
     9     3     8 ar  
    10     4     5 ar  
    11     4    46 1   
    12     5     6 ar  
    13     5    47 1   
    14     6     7 ar  
    15     6    48 1   
    16     7     8 ar  
    17     7    49 1   
    18     8    50 1   
    19     9    10 1   
    20     9    11 1   
    21     9    51 1   
    22    10    72 1   
    23    11    12 1   
    24    11    52 1   
    25    11    53 1   
    26    12    13 1   
    27    12    15 1   
    28    13    14 2   
    29    13    21 1   
    30    13    37 2   
    31    15    17 1   
    32    15    20 1   
    33    16    17 1   
    34    16    19 1   
    35    17    18 2   
    36    19    27 1   
    37    19    54 1   
    38    19    55 1   
    39    20    33 1   
    40    20    56 1   
    41    20    57 1   
    42    21    35 ar  
    43    21    36 ar  
    44    22    23 ar  
    45    22    27 ar  
    46    22    58 1   
    47    23    24 ar  
    48    23    59 1   
    49    24    25 ar  
    50    24    73 1   
    51    25    26 ar  
    52    25    60 1   
    53    26    27 ar  
    54    26    61 1   
    55    28    29 ar  
    56    28    33 ar  
    57    28    62 1   
    58    29    30 ar  
    59    29    63 1   
    60    30    31 ar  
    61    30    34 1   
    62    31    32 ar  
    63    31    64 1   
    64    32    33 ar  
    65    32    65 1   
    66    34    70 1   
    67    35    38 ar  
    68    35    66 1   
    69    36    39 ar  
    70    36    67 1   
    71    38    40 ar  
    72    38    41 1   
    73    39    40 ar  
    74    39    68 1   
    75    40    69 1   
    76    41    42 3   
    77    71    73 1   
@<TRIPOS>SUBSTRUCTURE
     1 BH0         1 TEMP              0 ****  ****    0 ROOT
