@<TRIPOS>MOLECULE
BH0
   73    77     1     0     0
SMALL
abcg2


@<TRIPOS>ATOM
      1 C1          -0.0730    -3.4800     0.5370 c3         1 BH0       0.124700
      2 C2          -0.6750    -3.3170     1.9400 c3         1 BH0      -0.049100
      3 C3          -1.5810    -4.4650     2.2920 ca         1 BH0      -0.087300
      4 C4          -2.9650    -4.3180     2.2870 ca         1 BH0      -0.105500
      5 C5          -3.7950    -5.3940     2.5750 ca         1 BH0      -0.110500
      6 C6          -3.2520    -6.6360     2.8720 ca         1 BH0      -0.111000
      7 C7          -1.8710    -6.7930     2.8850 ca         1 BH0      -0.110500
      8 C8          -1.0460    -5.7150     2.5990 ca         1 BH0      -0.105500
      9 C9           1.0300    -2.4690     0.2080 c3         1 BH0       0.140300
     10 O1           2.0410    -2.6320     1.1730 oh         1 BH0      -0.652000
     11 C10          0.5420    -1.0290     0.1860 c3         1 BH0       0.189800
     12 N1          -0.5680    -0.8560    -0.7390 n3         1 BH0      -0.515500
     13 S1          -0.3110    -0.6580    -2.3800 sy         1 BH0       1.155600
     14 O2          -1.0460    -1.6700    -3.1180 o          1 BH0      -0.527000
     15 N2          -1.7910    -1.3510    -0.3800 n          1 BH0      -0.279200
     16 N3          -1.0880    -3.5770    -0.5160 n          1 BH0      -0.411800
     17 C11         -2.1080    -2.6820    -0.6480 c          1 BH0       0.619000
     18 O3          -3.2440    -2.9810    -0.9640 o          1 BH0      -0.550000
     19 C14         -1.3220    -4.9150    -1.0560 c3         1 BH0       0.153300
     20 C15         -2.8830    -0.3930    -0.1810 c3         1 BH0       0.176300
     21 C12         -1.0880     0.9000    -2.7210 ca         1 BH0      -0.277500
     22 C17          0.4150    -6.7380    -1.1440 ca         1 BH0      -0.059500
     23 C18          1.5620    -7.3180    -1.6710 ca         1 BH0      -0.179500
     24 C19          2.2590    -6.6740    -2.6860 ca         1 BH0       0.143100
     25 C20          1.7930    -5.4500    -3.1670 ca         1 BH0      -0.179500
     26 C21          0.6460    -4.8900    -2.6350 ca         1 BH0      -0.059500
     27 C22         -0.0640    -5.5230    -1.6150 ca         1 BH0      -0.144300
     28 C23         -3.0800    -0.4100     2.3230 ca         1 BH0      -0.046000
     29 C24         -3.7570    -0.6840     3.5000 ca         1 BH0      -0.184500
     30 C25         -5.0420    -1.2230     3.4520 ca         1 BH0       0.149100
     31 C26         -5.6320    -1.4750     2.2160 ca         1 BH0      -0.184500
     32 C27         -4.9360    -1.2000     1.0490 ca         1 BH0      -0.046000
     33 C28         -3.6510    -0.6690     1.0810 ca         1 BH0      -0.147300
     34 O5          -5.7510    -1.5080     4.5610 oh         1 BH0      -0.530100
     35 C31         -2.2670     0.9280    -3.4430 ca         1 BH0       0.024000
     36 C32         -0.4890     2.0640    -2.2550 ca         1 BH0       0.005000
     37 O8           1.1210    -0.5020    -2.5610 o          1 BH0      -0.527000
     38 C33         -2.8600     2.1640    -3.6900 ca         1 BH0      -0.032000
     39 C34         -1.0920     3.2840    -2.5110 ca         1 BH0      -0.134000
     40 C13         -2.2780     3.3410    -3.2260 ca         1 BH0      -0.022000
     41 C16         -4.0790     2.2180    -4.4320 cg         1 BH0       0.314000
     42 N4          -5.0610     2.2630    -5.0310 n1         1 BH0      -0.432000
     43 H11          0.4350    -4.4480     0.5210 h1         1 BH0       0.080700
     44 H21         -1.2240    -2.3780     2.0230 hc         1 BH0       0.065700
     45 H22          0.1460    -3.2650     2.6580 hc         1 BH0       0.065700
     46 H44         -3.4030    -3.3540     2.0580 ha         1 BH0       0.117500
     47 H55         -4.8700    -5.2590     2.5690 ha         1 BH0       0.113000
     48 H66         -3.8980    -7.4750     3.0980 ha         1 BH0       0.112000
     49 H77         -1.4370    -7.7560     3.1240 ha         1 BH0       0.113000
     50 H88          0.0310    -5.8480     2.6120 ha         1 BH0       0.117500
     51 H99          1.4000    -2.7230    -0.7940 h1         1 BH0       0.052700
     52 H101         0.1850    -0.7140     1.1680 h1         1 BH0       0.072200
     53 H102         1.3500    -0.3510    -0.0860 h1         1 BH0       0.072200
     54 H141        -2.0680    -4.8330    -1.8450 h1         1 BH0       0.069200
     55 H142        -1.7440    -5.5720    -0.2900 h1         1 BH0       0.069200
     56 H151        -3.5560    -0.3760    -1.0400 h1         1 BH0       0.056700
     57 H152        -2.4100     0.5870    -0.1200 h1         1 BH0       0.056700
     58 H117        -0.1130    -7.2510    -0.3480 ha         1 BH0       0.123000
     59 H118         1.9090    -8.2700    -1.2840 ha         1 BH0       0.122000
     60 H220         2.3330    -4.9440    -3.9590 ha         1 BH0       0.122000
     61 H221         0.2980    -3.9380    -3.0190 ha         1 BH0       0.123000
     62 H223        -2.0860     0.0190     2.3800 ha         1 BH0       0.120000
     63 H224        -3.2870    -0.4740     4.4540 ha         1 BH0       0.123000
     64 H226        -6.6300    -1.8910     2.1720 ha         1 BH0       0.123000
     65 H227        -5.4020    -1.4110     0.0950 ha         1 BH0       0.120000
     66 H331        -2.7260     0.0210    -3.8100 ha         1 BH0       0.159000
     67 H332         0.4380     2.0310    -1.6970 ha         1 BH0       0.132000
     68 H334        -0.6340     4.1960    -2.1550 ha         1 BH0       0.128000
     69 H113        -2.7490     4.2940    -3.4260 ha         1 BH0       0.131000
     70 HO1         -5.2290    -1.3230     5.3500 ho         1 BH0       0.466000
     71 HO2          3.6060    -8.0230    -2.8300 ho         1 BH0       0.464000
     72 HO3          2.8110    -2.1220     0.9010 ho         1 BH0       0.453000
     73 O4           3.3810    -7.1790    -3.2380 oh         1 BH0      -0.533100
@<TRIPOS>BOND
     1     1     2 1   
     2     1     9 1   
     3     1    16 1   
     4     1    43 1   
     5     2     3 1   
     6     2    44 1   
     7     2    45 1   
     8     3     4 ar  
     9     3     8 ar  
    10     4     5 ar  
    11     4    46 1   
    12     5     6 ar  
    13     5    47 1   
    14     6     7 ar  
    15     6    48 1   
    16     7     8 ar  
    17     7    49 1   
    18     8    50 1   
    19     9    10 1   
    20     9    11 1   
    21     9    51 1   
    22    10    72 1   
    23    11    12 1   
    24    11    52 1   
    25    11    53 1   
    26    12    13 1   
    27    12    15 1   
    28    13    14 2   
    29    13    21 1   
    30    13    37 2   
    31    15    17 1   
    32    15    20 1   
    33    16    17 1   
    34    16    19 1   
    35    17    18 2   
    36    19    27 1   
    37    19    54 1   
    38    19    55 1   
    39    20    33 1   
    40    20    56 1   
    41    20    57 1   
    42    21    35 ar  
    43    21    36 ar  
    44    22    23 ar  
    45    22    27 ar  
    46    22    58 1   
    47    23    24 ar  
    48    23    59 1   
    49    24    25 ar  
    50    24    73 1   
    51    25    26 ar  
    52    25    60 1   
    53    26    27 ar  
    54    26    61 1   
    55    28    29 ar  
    56    28    33 ar  
    57    28    62 1   
    58    29    30 ar  
    59    29    63 1   
    60    30    31 ar  
    61    30    34 1   
    62    31    32 ar  
    63    31    64 1   
    64    32    33 ar  
    65    32    65 1   
    66    34    70 1   
    67    35    38 ar  
    68    35    66 1   
    69    36    39 ar  
    70    36    67 1   
    71    38    40 ar  
    72    38    41 1   
    73    39    40 ar  
    74    39    68 1   
    75    40    69 1   
    76    41    42 3   
    77    71    73 1   
@<TRIPOS>SUBSTRUCTURE
     1 BH0         1 TEMP              0 ****  ****    0 ROOT
