@<TRIPOS>MOLECULE
BH2
   15    14     1     0     0
SMALL
abcg2


@<TRIPOS>ATOM
      1 C           -2.7940    -0.1060     2.7430 c          1 BH2       0.730000
      2 N           -0.3920    -0.0350     2.1330 n8         1 BH2      -0.991200
      3 O           -3.7410     0.3740     3.3940 o          1 BH2      -0.751500
      4 CA          -1.3770     0.3830     3.1260 c3         1 BH2       0.022500
      5 CB          -1.3150     1.8990     3.3020 c3         1 BH2       0.074300
      6 OB          -1.8250     2.5760     2.1790 oh         1 BH2      -0.701000
      7 CG          -2.0100     2.4260     4.5760 c          1 BH2       0.719000
      8 OD1         -1.6960     1.9240     5.6680 o          1 BH2      -0.755500
      9 OD2         -2.7960     3.3850     4.3830 o          1 BH2      -0.755500
     10 HA          -1.1650    -0.0540     4.1150 h1         1 BH2       0.015700
     11 HB          -0.2460     2.1530     3.4260 h1         1 BH2      -0.025300
     12 H1N         -0.6320    -0.9670     1.8240 hn         1 BH2       0.355000
     13 HOB         -2.4770     3.1700     2.6000 ho         1 BH2       0.459000
     14 OXT         -2.8730    -0.9740     1.8500 o          1 BH2      -0.751500
     15 HN           0.5200    -0.0950     2.5670 hn         1 BH2       0.355000
@<TRIPOS>BOND
     1     1     3 1   
     2     1     4 1   
     3     1    14 1   
     4     2     4 1   
     5     2    12 1   
     6     2    15 1   
     7     4     5 1   
     8     4    10 1   
     9     5     6 1   
    10     5     7 1   
    11     5    11 1   
    12     6    13 1   
    13     7     8 1   
    14     7     9 1   
@<TRIPOS>SUBSTRUCTURE
     1 BH2         1 TEMP              0 ****  ****    0 ROOT
