@<TRIPOS>MOLECULE
BH2
   15    14     1     0     0
SMALL
No Charge or Current Charge


@<TRIPOS>ATOM
      1 C           -2.9830     0.1690     2.7540 c          1 BH2       0.730000
      2 N           -0.4300    -0.1920     2.2230 n8         1 BH2      -0.991200
      3 O           -3.5870    -0.7120     3.3530 o          1 BH2      -0.751500
      4 CA          -1.4650     0.4350     3.1390 c3         1 BH2       0.022500
      5 CB          -1.1960     1.9610     3.3430 c3         1 BH2       0.074300
      6 OB          -1.5330     2.6810     2.1260 oh         1 BH2      -0.701000
      7 CG          -1.9510     2.4800     4.6370 c          1 BH2       0.719000
      8 OD1         -1.2930     2.6810     5.6510 o          1 BH2      -0.755500
      9 OD2         -3.1440     2.7530     4.5670 o          1 BH2      -0.755500
     10 HA          -1.3090    -0.0390     4.1180 h1         1 BH2       0.015700
     11 HB          -0.1210     2.0910     3.5350 h1         1 BH2      -0.025300
     12 H1N         -0.5250    -1.2140     2.2560 hn         1 BH2       0.355000
     13 HOB         -2.3200     2.1840     1.7750 ho         1 BH2       0.459000
     14 OXT         -3.4690     0.7920     1.8140 o          1 BH2      -0.751500
     15 HN           0.5070    -0.0110     2.5970 hn         1 BH2       0.355000
@<TRIPOS>BOND
     1     1     3 1   
     2     1     4 1   
     3     1    14 1   
     4     2     4 1   
     5     2    12 1   
     6     2    15 1   
     7     4     5 1   
     8     4    10 1   
     9     5     6 1   
    10     5     7 1   
    11     5    11 1   
    12     6    13 1   
    13     7     8 1   
    14     7     9 1   
@<TRIPOS>SUBSTRUCTURE
     1 BH2         1 TEMP              0 ****  ****    0 ROOT
