@<TRIPOS>MOLECULE
BH3
   67    67     1     0     0
SMALL
No Charge or Current Charge


@<TRIPOS>ATOM
      1 OAD         -5.4350     1.0740    -1.9580 o          1 BH3      -0.934333
      2 PBC         -5.5300     1.5570    -0.5500 p5         1 BH3       1.331500
      3 OAE         -4.1790     1.4090     0.0620 o          1 BH3      -0.934333
      4 OAB         -5.9180     2.9940    -0.5020 o          1 BH3      -0.934333
      5 CAZ         -6.6020     0.4580     0.3830 c3         1 BH3      -0.651700
      6 PBD         -8.2760     1.0580     0.1780 p5         1 BH3       1.331500
      7 OAF         -9.1660    -0.0010     0.7350 o          1 BH3      -0.934333
      8 OAG         -8.4920     2.2830     1.0000 o          1 BH3      -0.934333
      9 OAC         -8.6330     1.2800    -1.2520 o          1 BH3      -0.934333
     10 CAY         -6.4970    -1.0210    -0.0680 c3         1 BH3       0.096600
     11 NBB         -5.2040    -1.6800     0.1970 na         1 BH3       0.055300
     12 CAJ         -4.1040    -1.6760    -0.6410 cc         1 BH3      -0.008300
     13 CAI         -4.9090    -2.4800     1.3060 cc         1 BH3      -0.161000
     14 CAH         -3.6260    -2.9680     1.1500 cd         1 BH3      -0.292000
     15 NBA         -3.1570    -2.4600    -0.0400 na         1 BH3      -0.003000
     16 CAX         -1.8150    -2.7310    -0.5800 c3         1 BH3       0.100600
     17 CAW         -0.7220    -1.8460     0.0540 c3         1 BH3      -0.118400
     18 CAV          0.6870    -2.1350    -0.5100 c3         1 BH3      -0.063400
     19 CAU          1.7860    -1.2560     0.1250 c3         1 BH3      -0.077400
     20 CAT          3.1940    -1.5490    -0.4380 c3         1 BH3      -0.072400
     21 CAS          4.2940    -0.6710     0.1980 c3         1 BH3      -0.076400
     22 CAR          5.7020    -0.9650    -0.3650 c3         1 BH3      -0.073400
     23 CAQ          6.8030    -0.0880     0.2710 c3         1 BH3      -0.075400
     24 CAP          8.2100    -0.3820    -0.2920 c3         1 BH3      -0.074400
     25 CAO          9.3110     0.4950     0.3440 c3         1 BH3      -0.074400
     26 CAN         10.7190     0.2010    -0.2200 c3         1 BH3      -0.074400
     27 CAM         11.8200     1.0780     0.4160 c3         1 BH3      -0.075400
     28 CAL         13.2270     0.7830    -0.1470 c3         1 BH3      -0.075400
     29 CAK         14.3280     1.6600     0.4890 c3         1 BH3      -0.075400
     30 CAA         15.7330     1.3670    -0.0730 c3         1 BH3      -0.087100
     31 H3          -6.3510     0.5420     1.4430 hc         1 BH3       0.029700
     32 H6          -7.2600    -1.6160     0.4500 h1         1 BH3       0.064700
     33 H7          -6.7130    -1.1010    -1.1410 h1         1 BH3       0.064700
     34 H8          -4.0080    -1.1290    -1.5710 h5         1 BH3       0.277000
     35 H9          -5.6270    -2.6370     2.1020 h4         1 BH3       0.160000
     36 H10         -3.0360    -3.6180     1.7870 h4         1 BH3       0.120000
     37 H11         -1.5760    -3.7870    -0.4040 h1         1 BH3       0.030200
     38 H12         -1.8330    -2.5670    -1.6650 h1         1 BH3       0.030200
     39 H13         -0.9730    -0.7910    -0.1140 hc         1 BH3       0.100200
     40 H14         -0.7190    -2.0040     1.1390 hc         1 BH3       0.100200
     41 H15          0.9300    -3.1920    -0.3430 hc         1 BH3       0.016200
     42 H16          0.6800    -1.9750    -1.5960 hc         1 BH3       0.016200
     43 H17          1.5440    -0.1990    -0.0420 hc         1 BH3       0.052200
     44 H18          1.7920    -1.4150     1.2110 hc         1 BH3       0.052200
     45 H19          3.4360    -2.6060    -0.2700 hc         1 BH3       0.025200
     46 H20          3.1880    -1.3890    -1.5230 hc         1 BH3       0.025200
     47 H21          4.0530     0.3860     0.0310 hc         1 BH3       0.041700
     48 H22          4.3000    -0.8310     1.2840 hc         1 BH3       0.041700
     49 H23          5.9430    -2.0230    -0.1980 hc         1 BH3       0.030700
     50 H24          5.6960    -0.8050    -1.4500 hc         1 BH3       0.030700
     51 H25          6.5620     0.9690     0.1040 hc         1 BH3       0.038700
     52 H26          6.8080    -0.2480     1.3570 hc         1 BH3       0.038700
     53 H27          8.4510    -1.4400    -0.1250 hc         1 BH3       0.033200
     54 H28          8.2050    -0.2220    -1.3780 hc         1 BH3       0.033200
     55 H29          9.0700     1.5520     0.1770 hc         1 BH3       0.037700
     56 H30          9.3170     0.3350     1.4290 hc         1 BH3       0.037700
     57 H31         10.9600    -0.8570    -0.0530 hc         1 BH3       0.034700
     58 H32         10.7130     0.3610    -1.3050 hc         1 BH3       0.034700
     59 H33         11.5790     2.1350     0.2500 hc         1 BH3       0.037200
     60 H34         11.8260     0.9170     1.5020 hc         1 BH3       0.037200
     61 H35         13.4680    -0.2740     0.0190 hc         1 BH3       0.035200
     62 H36         13.2220     0.9440    -1.2330 hc         1 BH3       0.035200
     63 H37         14.0920     2.7190     0.3220 hc         1 BH3       0.036200
     64 H38         14.3390     1.5010     1.5740 hc         1 BH3       0.036200
     65 H39         16.4790     2.0120     0.4070 hc         1 BH3       0.027700
     66 H40         16.0140     0.3230     0.1090 hc         1 BH3       0.027700
     67 H41         15.7650     1.5520    -1.1540 hc         1 BH3       0.027700
@<TRIPOS>BOND
     1     1     2 1   
     2     2     3 1   
     3     2     4 1   
     4     2     5 1   
     5     5     6 1   
     6     5    10 1   
     7     5    31 1   
     8     6     7 1   
     9     6     8 1   
    10     6     9 1   
    11    10    11 1   
    12    10    32 1   
    13    10    33 1   
    14    11    12 2   
    15    11    13 1   
    16    12    15 1   
    17    12    34 1   
    18    13    14 2   
    19    13    35 1   
    20    14    15 1   
    21    14    36 1   
    22    15    16 1   
    23    16    17 1   
    24    16    37 1   
    25    16    38 1   
    26    17    18 1   
    27    17    39 1   
    28    17    40 1   
    29    18    19 1   
    30    18    41 1   
    31    18    42 1   
    32    19    20 1   
    33    19    43 1   
    34    19    44 1   
    35    20    21 1   
    36    20    45 1   
    37    20    46 1   
    38    21    22 1   
    39    21    47 1   
    40    21    48 1   
    41    22    23 1   
    42    22    49 1   
    43    22    50 1   
    44    23    24 1   
    45    23    51 1   
    46    23    52 1   
    47    24    25 1   
    48    24    53 1   
    49    24    54 1   
    50    25    26 1   
    51    25    55 1   
    52    25    56 1   
    53    26    27 1   
    54    26    57 1   
    55    26    58 1   
    56    27    28 1   
    57    27    59 1   
    58    27    60 1   
    59    28    29 1   
    60    28    61 1   
    61    28    62 1   
    62    29    30 1   
    63    29    63 1   
    64    29    64 1   
    65    30    65 1   
    66    30    66 1   
    67    30    67 1   
@<TRIPOS>SUBSTRUCTURE
     1 BH3         1 TEMP              0 ****  ****    0 ROOT
