@<TRIPOS>MOLECULE
BH3
   67    67     1     0     0
SMALL
abcg2


@<TRIPOS>ATOM
      1 OAD         -5.0250     0.3040    -2.0630 o          1 BH3      -0.934333
      2 PBC         -4.7880     1.0330    -0.7210 p5         1 BH3       1.331500
      3 OAE         -3.4400     0.6150    -0.0870 o          1 BH3      -0.934333
      4 OAB         -4.9520     2.5510    -0.8040 o          1 BH3      -0.934333
      5 CAZ         -6.0830     0.3560     0.4480 c3         1 BH3      -0.651700
      6 PBD         -7.7820     1.1410     0.4120 p5         1 BH3       1.331500
      7 OAF         -8.6580     0.1730     1.2390 o          1 BH3      -0.934333
      8 OAG         -7.6560     2.5130     1.0830 o          1 BH3      -0.934333
      9 OAC         -8.2090     1.1910    -1.0620 o          1 BH3      -0.934333
     10 CAY         -6.2710    -1.1350     0.2270 c3         1 BH3       0.096600
     11 NBB         -5.0430    -1.9210     0.3930 na         1 BH3       0.055300
     12 CAJ         -4.0510    -1.9730    -0.4790 cc         1 BH3      -0.008300
     13 CAI         -4.6550    -2.5650     1.5390 cc         1 BH3      -0.161000
     14 CAH         -3.4030    -3.0350     1.3290 cd         1 BH3      -0.292000
     15 NBA         -3.0550    -2.6680     0.0510 na         1 BH3      -0.003000
     16 CAX         -1.7450    -2.8380    -0.5530 c3         1 BH3       0.100600
     17 CAW         -0.7700    -1.7680    -0.0860 c3         1 BH3      -0.118400
     18 CAV          0.6050    -1.9560    -0.7140 c3         1 BH3      -0.063400
     19 CAU          1.6320    -0.9570    -0.1970 c3         1 BH3      -0.077400
     20 CAT          3.0330    -1.2070    -0.7420 c3         1 BH3      -0.072400
     21 CAS          4.0870    -0.2720    -0.1610 c3         1 BH3      -0.076400
     22 CAR          5.4970    -0.5990    -0.6380 c3         1 BH3      -0.073400
     23 CAQ          6.5780     0.2580     0.0080 c3         1 BH3      -0.075400
     24 CAP          7.9830    -0.1260    -0.4400 c3         1 BH3      -0.074400
     25 CAO          9.0840     0.6750     0.2440 c3         1 BH3      -0.074400
     26 CAN         10.4820     0.2610    -0.1970 c3         1 BH3      -0.074400
     27 CAM         11.5940     1.0340     0.5020 c3         1 BH3      -0.075400
     28 CAL         12.9890     0.6070     0.0610 c3         1 BH3      -0.075400
     29 CAK         14.1060     1.3670     0.7640 c3         1 BH3      -0.075400
     30 CAA         15.4930     0.9280     0.3150 c3         1 BH3      -0.087100
     31 H3          -5.7070     0.4960     1.4720 hc         1 BH3       0.029700
     32 H6          -6.9950    -1.5480     0.9260 h1         1 BH3       0.064700
     33 H7          -6.6360    -1.3130    -0.7830 h1         1 BH3       0.064700
     34 H8          -4.0870    -1.5090    -1.4550 h5         1 BH3       0.277000
     35 H9          -5.3000    -2.6470     2.3970 h4         1 BH3       0.160000
     36 H10         -2.7490    -3.6090     1.9630 h4         1 BH3       0.120000
     37 H11         -1.3870    -3.8370    -0.3010 h1         1 BH3       0.030200
     38 H12         -1.8750    -2.8020    -1.6350 h1         1 BH3       0.030200
     39 H13         -1.1840    -0.7850    -0.3250 hc         1 BH3       0.100200
     40 H14         -0.6800    -1.8170     1.0040 hc         1 BH3       0.100200
     41 H15          0.9590    -2.9720    -0.5100 hc         1 BH3       0.016200
     42 H16          0.5270    -1.8730    -1.8030 hc         1 BH3       0.016200
     43 H17          1.3130     0.0610    -0.4460 hc         1 BH3       0.052200
     44 H18          1.6600    -1.0060     0.8980 hc         1 BH3       0.052200
     45 H19          3.3190    -2.2420    -0.5260 hc         1 BH3       0.025200
     46 H20          3.0250    -1.1170    -1.8340 hc         1 BH3       0.025200
     47 H21          3.8420     0.7650    -0.4150 hc         1 BH3       0.041700
     48 H22          4.0540    -0.3320     0.9330 hc         1 BH3       0.041700
     49 H23          5.7050    -1.6540    -0.4270 hc         1 BH3       0.030700
     50 H24          5.5490    -0.4930    -1.7270 hc         1 BH3       0.030700
     51 H25          6.3970     1.3150    -0.2180 hc         1 BH3       0.038700
     52 H26          6.5080     0.1650     1.0970 hc         1 BH3       0.038700
     53 H27          8.1400    -1.1920    -0.2450 hc         1 BH3       0.033200
     54 H28          8.0650    -0.0030    -1.5260 hc         1 BH3       0.033200
     55 H29          8.9400     1.7430     0.0450 hc         1 BH3       0.037700
     56 H30          8.9960     0.5550     1.3300 hc         1 BH3       0.037700
     57 H31         10.6150    -0.8100    -0.0120 hc         1 BH3       0.034700
     58 H32         10.5750     0.3940    -1.2810 hc         1 BH3       0.034700
     59 H33         11.4670     2.1060     0.3160 hc         1 BH3       0.037200
     60 H34         11.5010     0.9020     1.5860 hc         1 BH3       0.037200
     61 H35         13.1120    -0.4670     0.2420 hc         1 BH3       0.035200
     62 H36         13.0840     0.7420    -1.0230 hc         1 BH3       0.035200
     63 H37         13.9840     2.4400     0.5820 hc         1 BH3       0.036200
     64 H38         14.0100     1.2320     1.8450 hc         1 BH3       0.036200
     65 H39         16.2780     1.4840     0.8300 hc         1 BH3       0.027700
     66 H40         15.6540    -0.1330     0.5150 hc         1 BH3       0.027700
     67 H41         15.6270     1.0830    -0.7570 hc         1 BH3       0.027700
@<TRIPOS>BOND
     1     1     2 1   
     2     2     3 1   
     3     2     4 1   
     4     2     5 1   
     5     5     6 1   
     6     5    10 1   
     7     5    31 1   
     8     6     7 1   
     9     6     8 1   
    10     6     9 1   
    11    10    11 1   
    12    10    32 1   
    13    10    33 1   
    14    11    12 2   
    15    11    13 1   
    16    12    15 1   
    17    12    34 1   
    18    13    14 2   
    19    13    35 1   
    20    14    15 1   
    21    14    36 1   
    22    15    16 1   
    23    16    17 1   
    24    16    37 1   
    25    16    38 1   
    26    17    18 1   
    27    17    39 1   
    28    17    40 1   
    29    18    19 1   
    30    18    41 1   
    31    18    42 1   
    32    19    20 1   
    33    19    43 1   
    34    19    44 1   
    35    20    21 1   
    36    20    45 1   
    37    20    46 1   
    38    21    22 1   
    39    21    47 1   
    40    21    48 1   
    41    22    23 1   
    42    22    49 1   
    43    22    50 1   
    44    23    24 1   
    45    23    51 1   
    46    23    52 1   
    47    24    25 1   
    48    24    53 1   
    49    24    54 1   
    50    25    26 1   
    51    25    55 1   
    52    25    56 1   
    53    26    27 1   
    54    26    57 1   
    55    26    58 1   
    56    27    28 1   
    57    27    59 1   
    58    27    60 1   
    59    28    29 1   
    60    28    61 1   
    61    28    62 1   
    62    29    30 1   
    63    29    63 1   
    64    29    64 1   
    65    30    65 1   
    66    30    66 1   
    67    30    67 1   
@<TRIPOS>SUBSTRUCTURE
     1 BH3         1 TEMP              0 ****  ****    0 ROOT
