@<TRIPOS>MOLECULE
BH7
   50    51     1     0     0
SMALL
abcg2


@<TRIPOS>ATOM
      1 N1          -0.0990    -0.2090    -8.0490 ns         1 BH7      -0.521900
      2 C2           0.9480    -0.6900    -7.1860 c5         1 BH7       0.100700
      3 C3           0.1520    -1.2040    -5.9500 c5         1 BH7       0.098700
      4 N4          -1.1910    -0.7720    -6.2410 ns         1 BH7      -0.512900
      5 C5          -1.3290    -0.2160    -7.4740 c          1 BH7       0.613000
      6 C6           1.9200     0.4040    -6.7280 c5         1 BH7       0.024600
      7 S7           1.2140     1.1220    -5.2230 ss         1 BH7      -0.401000
      8 C8           0.7310    -0.5530    -4.6880 c5         1 BH7       0.071300
      9 O9          -2.3670     0.1900    -7.9740 o          1 BH7      -0.580000
     10 C10         -0.2100    -0.5440    -3.4970 c3         1 BH7      -0.059400
     11 C11          0.4060     0.0600    -2.2400 c3         1 BH7      -0.079400
     12 C12         -0.5170    -0.0500    -1.0330 c3         1 BH7      -0.065400
     13 C13          0.0990     0.5730     0.2140 c3         1 BH7      -0.158400
     14 C14         -0.7990     0.4620     1.4270 c          1 BH7       0.595100
     15 O15         -1.9980     0.7110     1.3730 o          1 BH7      -0.618100
     16 N16         -0.1880     0.0930     2.5620 ns         1 BH7      -0.501900
     17 C17         -0.8660    -0.0420     3.8350 c3         1 BH7       0.098000
     18 C18          0.1340    -0.0610     4.9790 c3         1 BH7      -0.095400
     19 C19         -0.5440    -0.2140     6.3340 c3         1 BH7      -0.078400
     20 C20          0.4460    -0.2250     7.4930 c3         1 BH7      -0.053400
     21 C21         -0.2330    -0.3630     8.8450 c3         1 BH7      -0.206400
     22 C22          0.7010    -0.3790    10.0700 c          1 BH7       0.718000
     23 O23          0.1380    -0.3540    11.1850 o          1 BH7      -0.742000
     24 O24          1.9290    -0.4250     9.8650 o          1 BH7      -0.742000
     25 HN1          0.0890     0.3280    -8.8790 hn         1 BH7       0.338500
     26 H21A         1.5110    -1.4920    -7.6670 h1         1 BH7       0.068700
     27 H31          0.2070    -2.2920    -5.8520 h1         1 BH7       0.062700
     28 HN4         -1.9900    -1.1380    -5.7510 hn         1 BH7       0.340500
     29 H61          2.0600     1.1750    -7.4860 h1         1 BH7       0.075700
     30 H62          2.8950    -0.0300    -6.5030 h1         1 BH7       0.075700
     31 H81          1.6450    -1.0930    -4.4190 h1         1 BH7       0.069700
     32 H10         -0.5010    -1.5800    -3.2920 hc         1 BH7       0.053700
     33 H11         -1.1260    -0.0060    -3.7550 hc         1 BH7       0.053700
     34 H12          0.6470     1.1130    -2.4160 hc         1 BH7       0.044700
     35 H13          1.3560    -0.4390    -2.0210 hc         1 BH7       0.044700
     36 H14         -0.7390    -1.1050    -0.8420 hc         1 BH7       0.053200
     37 H15         -1.4700     0.4340    -1.2550 hc         1 BH7       0.053200
     38 H16          0.2810     1.6390     0.0380 hc         1 BH7       0.053700
     39 H17          1.0760     0.1260     0.4130 hc         1 BH7       0.053700
     40 H18          0.7890    -0.1480     2.5260 hn         1 BH7       0.308500
     41 H19         -1.4700    -0.9560     3.8520 h1         1 BH7       0.049700
     42 H20         -1.5580     0.7940     3.9620 h1         1 BH7       0.049700
     43 H21          0.7200     0.8640     4.9630 hc         1 BH7       0.038700
     44 H22          0.8440    -0.8820     4.8330 hc         1 BH7       0.038700
     45 H23         -1.1310    -1.1400     6.3460 hc         1 BH7       0.029700
     46 H24         -1.2620     0.6010     6.4740 hc         1 BH7       0.029700
     47 H25          1.0380     0.6950     7.4670 hc         1 BH7       0.038200
     48 H26          1.1580    -1.0430     7.3510 hc         1 BH7       0.038200
     49 H27         -0.8290    -1.2840     8.8640 hc         1 BH7       0.015700
     50 H28         -0.9620     0.4450     8.9760 hc         1 BH7       0.015700
@<TRIPOS>BOND
     1     1     2 1   
     2     1     5 1   
     3     1    25 1   
     4     2     3 1   
     5     2     6 1   
     6     2    26 1   
     7     3     4 1   
     8     3     8 1   
     9     3    27 1   
    10     4     5 1   
    11     4    28 1   
    12     5     9 2   
    13     6     7 1   
    14     6    29 1   
    15     6    30 1   
    16     7     8 1   
    17     8    10 1   
    18     8    31 1   
    19    10    11 1   
    20    10    32 1   
    21    10    33 1   
    22    11    12 1   
    23    11    34 1   
    24    11    35 1   
    25    12    13 1   
    26    12    36 1   
    27    12    37 1   
    28    13    14 1   
    29    13    38 1   
    30    13    39 1   
    31    14    15 2   
    32    14    16 1   
    33    16    17 1   
    34    16    40 1   
    35    17    18 1   
    36    17    41 1   
    37    17    42 1   
    38    18    19 1   
    39    18    43 1   
    40    18    44 1   
    41    19    20 1   
    42    19    45 1   
    43    19    46 1   
    44    20    21 1   
    45    20    47 1   
    46    20    48 1   
    47    21    22 1   
    48    21    49 1   
    49    21    50 1   
    50    22    23 1   
    51    22    24 1   
@<TRIPOS>SUBSTRUCTURE
     1 BH7         1 TEMP              0 ****  ****    0 ROOT
