@<TRIPOS>MOLECULE
BH7
   50    51     1     0     0
SMALL
No Charge or Current Charge


@<TRIPOS>ATOM
      1 N1          -0.4070     0.3090    -7.9230 ns         1 BH7      -0.521900
      2 C2           0.6480    -0.5030    -7.3120 c5         1 BH7       0.100700
      3 C3          -0.0740    -1.0780    -6.0240 c5         1 BH7       0.098700
      4 N4          -1.3930    -0.4390    -6.0960 ns         1 BH7      -0.512900
      5 C5          -1.5390     0.3510    -7.1830 c          1 BH7       0.613000
      6 C6           1.7340     0.5290    -6.8570 c5         1 BH7       0.024600
      7 S7           1.1740     1.2140    -5.2320 ss         1 BH7      -0.401000
      8 C8           0.6630    -0.5010    -4.7590 c5         1 BH7       0.071300
      9 O9          -2.5370     0.9850    -7.4620 o          1 BH7      -0.580000
     10 C10         -0.1400    -0.5150    -3.4300 c3         1 BH7      -0.059400
     11 C11          0.6890    -0.1300    -2.1820 c3         1 BH7      -0.079400
     12 C12         -0.1270    -0.1930    -0.8720 c3         1 BH7      -0.065400
     13 C13          0.7040     0.1930     0.3750 c3         1 BH7      -0.158400
     14 C14         -0.1340     0.1130     1.6570 c          1 BH7       0.595100
     15 O15         -0.9780     0.9510     1.9430 o          1 BH7      -0.618100
     16 N16          0.1550    -0.9560     2.4750 ns         1 BH7      -0.501900
     17 C17         -0.4810    -1.2180     3.7680 c3         1 BH7       0.098000
     18 C18          0.1150    -0.3520     4.8970 c3         1 BH7      -0.095400
     19 C19         -0.5260    -0.6340     6.2730 c3         1 BH7      -0.078400
     20 C20          0.0700     0.2280     7.4080 c3         1 BH7      -0.053400
     21 C21         -0.5710    -0.0550     8.7880 c3         1 BH7      -0.206400
     22 C22          0.0720     0.8370     9.8660 c          1 BH7       0.718000
     23 O23         -0.4120     1.9400    10.0660 o          1 BH7      -0.742000
     24 O24          1.0670     0.4200    10.4410 o          1 BH7      -0.742000
     25 HN1         -0.3480     0.8510    -8.7760 hn         1 BH7       0.338500
     26 H21A         1.0390    -1.2790    -7.9840 h1         1 BH7       0.068700
     27 H31         -0.1370    -2.1750    -6.0190 h1         1 BH7       0.062700
     28 HN4         -2.1550    -0.5270    -5.4360 hn         1 BH7       0.340500
     29 H61          1.8910     1.3320    -7.5900 h1         1 BH7       0.075700
     30 H62          2.6980     0.0240    -6.7070 h1         1 BH7       0.075700
     31 H81          1.5790    -1.0860    -4.5960 h1         1 BH7       0.069700
     32 H10         -0.5520    -1.5200    -3.2740 hc         1 BH7       0.053700
     33 H11         -0.9980     0.1640    -3.5020 hc         1 BH7       0.053700
     34 H12          1.0860     0.8850    -2.3060 hc         1 BH7       0.044700
     35 H13          1.5520    -0.8030    -2.1020 hc         1 BH7       0.044700
     36 H14         -0.5230    -1.2080    -0.7400 hc         1 BH7       0.053200
     37 H15         -0.9910     0.4790    -0.9520 hc         1 BH7       0.053200
     38 H16          1.0580     1.2230     0.2510 hc         1 BH7       0.053700
     39 H17          1.5610    -0.4880     0.4450 hc         1 BH7       0.053700
     40 H18          0.8740    -1.5930     2.1540 hn         1 BH7       0.308500
     41 H19         -0.3460    -2.2800     4.0130 h1         1 BH7       0.049700
     42 H20         -1.5590    -1.0260     3.6840 h1         1 BH7       0.049700
     43 H21         -0.0170     0.7090     4.6490 hc         1 BH7       0.038700
     44 H22          1.1950    -0.5360     4.9570 hc         1 BH7       0.038700
     45 H23         -0.3950    -1.6960     6.5190 hc         1 BH7       0.029700
     46 H24         -1.6060    -0.4510     6.2090 hc         1 BH7       0.029700
     47 H25         -0.0610     1.2890     7.1600 hc         1 BH7       0.038200
     48 H26          1.1500     0.0460     7.4680 hc         1 BH7       0.038200
     49 H27         -0.3750    -1.1140     8.9990 hc         1 BH7       0.015700
     50 H28         -1.6370     0.1830     8.6790 hc         1 BH7       0.015700
@<TRIPOS>BOND
     1     1     2 1   
     2     1     5 1   
     3     1    25 1   
     4     2     3 1   
     5     2     6 1   
     6     2    26 1   
     7     3     4 1   
     8     3     8 1   
     9     3    27 1   
    10     4     5 1   
    11     4    28 1   
    12     5     9 2   
    13     6     7 1   
    14     6    29 1   
    15     6    30 1   
    16     7     8 1   
    17     8    10 1   
    18     8    31 1   
    19    10    11 1   
    20    10    32 1   
    21    10    33 1   
    22    11    12 1   
    23    11    34 1   
    24    11    35 1   
    25    12    13 1   
    26    12    36 1   
    27    12    37 1   
    28    13    14 1   
    29    13    38 1   
    30    13    39 1   
    31    14    15 2   
    32    14    16 1   
    33    16    17 1   
    34    16    40 1   
    35    17    18 1   
    36    17    41 1   
    37    17    42 1   
    38    18    19 1   
    39    18    43 1   
    40    18    44 1   
    41    19    20 1   
    42    19    45 1   
    43    19    46 1   
    44    20    21 1   
    45    20    47 1   
    46    20    48 1   
    47    21    22 1   
    48    21    49 1   
    49    21    50 1   
    50    22    23 1   
    51    22    24 1   
@<TRIPOS>SUBSTRUCTURE
     1 BH7         1 TEMP              0 ****  ****    0 ROOT
