@<TRIPOS>MOLECULE
BH8
   52    52     1     0     0
SMALL
No Charge or Current Charge


@<TRIPOS>ATOM
      1 OAD         -3.8470    -2.7830     0.4160 o          1 BH8      -0.934500
      2 PAX         -3.2950    -1.4020     0.5060 p5         1 BH8       1.330000
      3 OAE         -3.1290    -0.9840     1.9280 o          1 BH8      -0.934500
      4 OAB         -1.9430    -1.3890    -0.1220 o          1 BH8      -0.934500
      5 CAU         -4.2440    -0.1560    -0.3730 c3         1 BH8      -0.649700
      6 PAY         -5.9740    -0.5650    -0.1630 p5         1 BH8       1.330000
      7 OAF         -6.3390    -1.7280    -1.0220 o          1 BH8      -0.934500
      8 OAG         -6.3380    -0.7940     1.2640 o          1 BH8      -0.934500
      9 OAC         -6.7420     0.6080    -0.6710 o          1 BH8      -0.934500
     10 CAT         -3.9640     1.2850     0.1260 c3         1 BH8       0.096600
     11 NAW         -2.6060     1.8000    -0.1370 na         1 BH8       0.055300
     12 CAJ         -1.5050     1.6400     0.6830 cc         1 BH8      -0.007300
     13 CAI         -2.2340     2.5990    -1.2230 cc         1 BH8      -0.161000
     14 CAH         -0.9010     2.9300    -1.0700 cd         1 BH8      -0.292000
     15 NAV         -0.4800     2.3300     0.0940 na         1 BH8      -0.004000
     16 CAS          0.8900     2.4240     0.6210 c3         1 BH8       0.100600
     17 CAR          1.8650     1.4400    -0.0570 c3         1 BH8      -0.120400
     18 CAQ          3.3040     1.5450     0.4930 c3         1 BH8      -0.061400
     19 CAP          4.2860     0.5650    -0.1870 c3         1 BH8      -0.078400
     20 CAO          5.7250     0.6730     0.3630 c3         1 BH8      -0.071400
     21 CAN          6.7070    -0.3050    -0.3180 c3         1 BH8      -0.077400
     22 CAM          8.1470    -0.1950     0.2320 c3         1 BH8      -0.073400
     23 CAL          9.1300    -1.1730    -0.4480 c3         1 BH8      -0.077400
     24 CAK         10.5690    -1.0640     0.1010 c3         1 BH8      -0.075400
     25 CAA         11.5500    -2.0390    -0.5770 c3         1 BH8      -0.087100
     26 H3          -4.0160    -0.2300    -1.4390 hc         1 BH8       0.029700
     27 H6          -4.6590     1.9820    -0.3590 h1         1 BH8       0.064700
     28 H7          -4.1560     1.3510     1.2050 h1         1 BH8       0.064700
     29 H8          -1.4620     1.0530     1.5930 h5         1 BH8       0.277000
     30 H9          -2.9380     2.8660    -2.0020 h4         1 BH8       0.161000
     31 H10         -0.2480     3.5290    -1.6950 h4         1 BH8       0.120000
     32 H11          1.2490     3.4510     0.4750 h1         1 BH8       0.029700
     33 H12          0.8660     2.2280     1.7010 h1         1 BH8       0.029700
     34 H13          1.4940     0.4170     0.0810 hc         1 BH8       0.102200
     35 H14          1.8730     1.6330    -1.1370 hc         1 BH8       0.102200
     36 H15          3.6670     2.5710     0.3560 hc         1 BH8       0.014700
     37 H16          3.2910     1.3500     1.5730 hc         1 BH8       0.014700
     38 H17          3.9240    -0.4610    -0.0500 hc         1 BH8       0.054200
     39 H18          4.2970     0.7590    -1.2670 hc         1 BH8       0.054200
     40 H19          6.0860     1.7000     0.2260 hc         1 BH8       0.024200
     41 H20          5.7130     0.4790     1.4430 hc         1 BH8       0.024200
     42 H21          6.3460    -1.3320    -0.1800 hc         1 BH8       0.042700
     43 H22          6.7190    -0.1110    -1.3980 hc         1 BH8       0.042700
     44 H23          8.5070     0.8320     0.0950 hc         1 BH8       0.029200
     45 H24          8.1350    -0.3900     1.3120 hc         1 BH8       0.029200
     46 H25          8.7690    -2.2000    -0.3110 hc         1 BH8       0.039200
     47 H26          9.1410    -0.9790    -1.5280 hc         1 BH8       0.039200
     48 H27         10.9340    -0.0390    -0.0360 hc         1 BH8       0.031700
     49 H28         10.5620    -1.2600     1.1810 hc         1 BH8       0.031700
     50 H29         11.2310    -3.0780    -0.4280 hc         1 BH8       0.025367
     51 H30         11.6060    -1.8450    -1.6550 hc         1 BH8       0.025367
     52 H31         12.5550    -1.9250    -0.1550 hc         1 BH8       0.025367
@<TRIPOS>BOND
     1     1     2 1   
     2     2     3 1   
     3     2     4 1   
     4     2     5 1   
     5     5     6 1   
     6     5    10 1   
     7     5    26 1   
     8     6     7 1   
     9     6     8 1   
    10     6     9 1   
    11    10    11 1   
    12    10    27 1   
    13    10    28 1   
    14    11    12 2   
    15    11    13 1   
    16    12    15 1   
    17    12    29 1   
    18    13    14 2   
    19    13    30 1   
    20    14    15 1   
    21    14    31 1   
    22    15    16 1   
    23    16    17 1   
    24    16    32 1   
    25    16    33 1   
    26    17    18 1   
    27    17    34 1   
    28    17    35 1   
    29    18    19 1   
    30    18    36 1   
    31    18    37 1   
    32    19    20 1   
    33    19    38 1   
    34    19    39 1   
    35    20    21 1   
    36    20    40 1   
    37    20    41 1   
    38    21    22 1   
    39    21    42 1   
    40    21    43 1   
    41    22    23 1   
    42    22    44 1   
    43    22    45 1   
    44    23    24 1   
    45    23    46 1   
    46    23    47 1   
    47    24    25 1   
    48    24    48 1   
    49    24    49 1   
    50    25    50 1   
    51    25    51 1   
    52    25    52 1   
@<TRIPOS>SUBSTRUCTURE
     1 BH8         1 TEMP              0 ****  ****    0 ROOT
