@<TRIPOS>MOLECULE
BH8
   52    52     1     0     0
SMALL
abcg2


@<TRIPOS>ATOM
      1 OAD         -2.5890    -2.6340     0.5410 o          1 BH8      -0.934500
      2 PAX         -2.3640    -1.1250     0.6230 p5         1 BH8       1.330000
      3 OAE         -2.5220    -0.5450     2.0470 o          1 BH8      -0.934500
      4 OAB         -1.0200    -0.6950    -0.0120 o          1 BH8      -0.934500
      5 CAU         -3.6610    -0.2690    -0.4180 c3         1 BH8      -0.649700
      6 PAY         -5.3890    -0.9900    -0.4300 p5         1 BH8       1.330000
      7 OAF         -5.3090    -2.3410    -1.1490 o          1 BH8      -0.934500
      8 OAG         -5.8340    -1.0720     1.0360 o          1 BH8      -0.934500
      9 OAC         -6.2130     0.0430    -1.2320 o          1 BH8      -0.934500
     10 CAT         -3.7850     1.1950    -0.0300 c3         1 BH8       0.096600
     11 NAW         -2.5340     1.9540    -0.1490 na         1 BH8       0.055300
     12 CAJ         -1.5080     1.8670     0.6800 cc         1 BH8      -0.007300
     13 CAI         -2.1630     2.7150    -1.2280 cc         1 BH8      -0.161000
     14 CAH         -0.8880     3.1150    -1.0160 cd         1 BH8      -0.292000
     15 NAV         -0.5070     2.5880     0.1950 na         1 BH8      -0.004000
     16 CAS          0.8380     2.6230     0.7470 c3         1 BH8       0.100600
     17 CAR          1.7200     1.5490     0.1270 c3         1 BH8      -0.120400
     18 CAQ          3.1410     1.5990     0.6710 c3         1 BH8      -0.061400
     19 CAP          4.0450     0.5530     0.0310 c3         1 BH8      -0.078400
     20 CAO          5.4960     0.6480     0.4850 c3         1 BH8      -0.071400
     21 CAN          6.3990    -0.3810    -0.1850 c3         1 BH8      -0.077400
     22 CAM          7.8610    -0.2640     0.2260 c3         1 BH8      -0.073400
     23 CAL          8.7620    -1.2750    -0.4720 c3         1 BH8      -0.077400
     24 CAK         10.2310    -1.1480    -0.0860 c3         1 BH8      -0.075400
     25 CAA         11.1200    -2.1520    -0.8060 c3         1 BH8      -0.087100
     26 H3          -3.3130    -0.3060    -1.4600 hc         1 BH8       0.029700
     27 H6          -4.5130     1.7040    -0.6590 h1         1 BH8       0.064700
     28 H7          -4.1170     1.2780     1.0030 h1         1 BH8       0.064700
     29 H8          -1.5260     1.2950     1.5970 h5         1 BH8       0.277000
     30 H9          -2.8380     2.9240    -2.0410 h4         1 BH8       0.161000
     31 H10         -0.2360     3.7370    -1.6050 h4         1 BH8       0.120000
     32 H11          1.2420     3.6200     0.5710 h1         1 BH8       0.029700
     33 H12          0.7570     2.4900     1.8260 h1         1 BH8       0.029700
     34 H13          1.2600     0.5740     0.3040 hc         1 BH8       0.102200
     35 H14          1.7430     1.6930    -0.9580 hc         1 BH8       0.102200
     36 H15          3.5590     2.5960     0.4940 hc         1 BH8       0.014700
     37 H16          3.1300     1.4590     1.7570 hc         1 BH8       0.014700
     38 H17          3.6580    -0.4470     0.2520 hc         1 BH8       0.054200
     39 H18          4.0020     0.6600    -1.0590 hc         1 BH8       0.054200
     40 H19          5.8740     1.6530     0.2710 hc         1 BH8       0.024200
     41 H20          5.5500     0.5280     1.5730 hc         1 BH8       0.024200
     42 H21          6.0360    -1.3890     0.0460 hc         1 BH8       0.042700
     43 H22          6.3200    -0.2730    -1.2720 hc         1 BH8       0.042700
     44 H23          8.2170     0.7490     0.0080 hc         1 BH8       0.029200
     45 H24          7.9480    -0.3890     1.3120 hc         1 BH8       0.029200
     46 H25          8.4150    -2.2890    -0.2470 hc         1 BH8       0.039200
     47 H26          8.6640    -1.1560    -1.5570 hc         1 BH8       0.039200
     48 H27         10.5750    -0.1320    -0.3030 hc         1 BH8       0.031700
     49 H28         10.3340    -1.2770     0.9960 hc         1 BH8       0.031700
     50 H29         10.8340    -3.1770    -0.5650 hc         1 BH8       0.025367
     51 H30         11.0470    -2.0370    -1.8890 hc         1 BH8       0.025367
     52 H31         12.1690    -2.0300    -0.5320 hc         1 BH8       0.025367
@<TRIPOS>BOND
     1     1     2 1   
     2     2     3 1   
     3     2     4 1   
     4     2     5 1   
     5     5     6 1   
     6     5    10 1   
     7     5    26 1   
     8     6     7 1   
     9     6     8 1   
    10     6     9 1   
    11    10    11 1   
    12    10    27 1   
    13    10    28 1   
    14    11    12 2   
    15    11    13 1   
    16    12    15 1   
    17    12    29 1   
    18    13    14 2   
    19    13    30 1   
    20    14    15 1   
    21    14    31 1   
    22    15    16 1   
    23    16    17 1   
    24    16    32 1   
    25    16    33 1   
    26    17    18 1   
    27    17    34 1   
    28    17    35 1   
    29    18    19 1   
    30    18    36 1   
    31    18    37 1   
    32    19    20 1   
    33    19    38 1   
    34    19    39 1   
    35    20    21 1   
    36    20    40 1   
    37    20    41 1   
    38    21    22 1   
    39    21    42 1   
    40    21    43 1   
    41    22    23 1   
    42    22    44 1   
    43    22    45 1   
    44    23    24 1   
    45    23    46 1   
    46    23    47 1   
    47    24    25 1   
    48    24    48 1   
    49    24    49 1   
    50    25    50 1   
    51    25    51 1   
    52    25    52 1   
@<TRIPOS>SUBSTRUCTURE
     1 BH8         1 TEMP              0 ****  ****    0 ROOT
