@<TRIPOS>MOLECULE
BH9
   48    51     1     0     0
SMALL
abcg2


@<TRIPOS>ATOM
      1 N1           8.5370    -0.5080     0.0190 na         1 BH9       0.000800
      2 C2           7.5630     0.3000    -0.4190 cc         1 BH9      -0.153000
      3 C4           6.7820    -1.3600     0.7880 cd         1 BH9       0.250900
      4 N5           8.0900    -1.5200     0.7530 nc         1 BH9      -0.515800
      5 C6           5.0260     0.2960    -0.1390 cd         1 BH9      -0.019000
      6 C7           3.9390    -0.4980     0.0880 cc         1 BH9      -0.106000
      7 N8           2.6850    -0.0020    -0.0880 na         1 BH9       0.147100
      8 C9           2.4460     1.2900    -0.5070 cc         1 BH9      -0.066000
      9 C10          3.5500     2.1250    -0.7550 cc         1 BH9      -0.080000
     10 C11          4.8090     1.6370    -0.5700 cd         1 BH9      -0.099000
     11 C12          1.4670    -0.6120     0.0850 cc         1 BH9      -0.290100
     12 C13          0.5530     0.3650    -0.2400 cd         1 BH9       0.209200
     13 C14          6.3760    -0.2200     0.0610 cd         1 BH9      -0.154000
     14 N14          1.1480     1.5220    -0.6010 nd         1 BH9      -0.339600
     15 N15         -0.8300     0.3220    -0.2380 ns         1 BH9      -0.384100
     16 C16         -1.5880    -0.7590     0.0680 c          1 BH9       0.623700
     17 C17         -3.0600    -0.5420     0.0510 ca         1 BH9      -0.156600
     18 C18         -3.6500     0.7030     0.2720 ca         1 BH9      -0.068500
     19 C19         -5.0260     0.8370     0.2730 ca         1 BH9      -0.120000
     20 C20         -5.8700    -0.2540     0.0480 ca         1 BH9      -0.038300
     21 C21         -5.2680    -1.4930    -0.1650 ca         1 BH9      -0.120000
     22 C22         -3.8890    -1.6390    -0.1540 ca         1 BH9      -0.068500
     23 C27         -7.3800    -0.0540     0.0570 c3         1 BH9      -0.003700
     24 C28         -8.1370    -1.3470    -0.2490 c3         1 BH9      -0.083433
     25 C32         -7.8090     0.4400     1.4450 c3         1 BH9      -0.083433
     26 C36         -7.7580     0.9910    -1.0020 c3         1 BH9      -0.083433
     27 O47         -1.0970    -1.8450     0.3320 o          1 BH9      -0.591100
     28 H2           7.7750     1.1600    -1.0330 h4         1 BH9       0.157000
     29 H4           6.1650    -2.0540     1.3390 h4         1 BH9       0.039100
     30 H7           4.0030    -1.5300     0.4030 h4         1 BH9       0.148000
     31 H10          3.3760     3.1420    -1.0780 ha         1 BH9       0.142000
     32 H11          5.6590     2.2830    -0.7430 ha         1 BH9       0.118000
     33 H12          1.3770    -1.6320     0.4060 h4         1 BH9       0.258000
     34 HN15        -1.2770     1.1720    -0.5460 hn         1 BH9       0.339500
     35 H18         -3.0480     1.5800     0.4760 ha         1 BH9       0.124500
     36 H19         -5.4450     1.8170     0.4620 ha         1 BH9       0.117000
     37 H21         -5.8720    -2.3730    -0.3400 ha         1 BH9       0.117000
     38 H22         -3.4590    -2.6180    -0.3190 ha         1 BH9       0.124500
     39 H28         -7.9440    -2.1210     0.4960 hc         1 BH9       0.036811
     40 H28A        -9.2110    -1.1510    -0.2430 hc         1 BH9       0.036811
     41 H28B        -7.8830    -1.7500    -1.2310 hc         1 BH9       0.036811
     42 H32         -7.3160     1.3730     1.7200 hc         1 BH9       0.036811
     43 H32A        -8.8860     0.6190     1.4660 hc         1 BH9       0.036811
     44 H32B        -7.5780    -0.3000     2.2130 hc         1 BH9       0.036811
     45 H36         -7.4470     0.6730    -1.9990 hc         1 BH9       0.036811
     46 H36A        -8.8390     1.1350    -1.0170 hc         1 BH9       0.036811
     47 H36B        -7.3010     1.9620    -0.8030 hc         1 BH9       0.036811
     48 HN1          9.5250    -0.4120    -0.1540 hn         1 BH9       0.375000
@<TRIPOS>BOND
     1     1     2 1   
     2     1     4 1   
     3     1    48 1   
     4     2    13 2   
     5     2    28 1   
     6     3     4 2   
     7     3    13 1   
     8     3    29 1   
     9     5     6 2   
    10     5    10 1   
    11     5    13 1   
    12     6     7 1   
    13     6    30 1   
    14     7     8 1   
    15     7    11 1   
    16     8     9 1   
    17     8    14 2   
    18     9    10 2   
    19     9    31 1   
    20    10    32 1   
    21    11    12 2   
    22    11    33 1   
    23    12    14 1   
    24    12    15 1   
    25    15    16 1   
    26    15    34 1   
    27    16    17 1   
    28    16    27 2   
    29    17    18 ar  
    30    17    22 ar  
    31    18    19 ar  
    32    18    35 1   
    33    19    20 ar  
    34    19    36 1   
    35    20    21 ar  
    36    20    23 1   
    37    21    22 ar  
    38    21    37 1   
    39    22    38 1   
    40    23    24 1   
    41    23    25 1   
    42    23    26 1   
    43    24    39 1   
    44    24    40 1   
    45    24    41 1   
    46    25    42 1   
    47    25    43 1   
    48    25    44 1   
    49    26    45 1   
    50    26    46 1   
    51    26    47 1   
@<TRIPOS>SUBSTRUCTURE
     1 BH9         1 TEMP              0 ****  ****    0 ROOT
