@<TRIPOS>MOLECULE
BH9
   48    51     1     0     0
SMALL
No Charge or Current Charge


@<TRIPOS>ATOM
      1 N1           8.4910    -0.6380    -0.0710 na         1 BH9       0.000800
      2 C2           7.5410     0.3820    -0.1350 cc         1 BH9      -0.153000
      3 C4           6.6430    -1.6760     0.0190 cd         1 BH9       0.250900
      4 N5           7.9430    -1.9120     0.0240 nc         1 BH9      -0.515800
      5 C6           5.0550     0.3390    -0.1090 cd         1 BH9      -0.019000
      6 C7           3.9440    -0.5100    -0.0380 cc         1 BH9      -0.106000
      7 N8           2.7140     0.1490    -0.0740 na         1 BH9       0.147100
      8 C9           2.5540     1.4940    -0.1680 cc         1 BH9      -0.066000
      9 C10          3.6830     2.3510    -0.2390 cc         1 BH9      -0.080000
     10 C11          4.9360     1.7840    -0.2100 cd         1 BH9      -0.099000
     11 C12          1.5200    -0.5010    -0.0170 cc         1 BH9      -0.290100
     12 C13          0.6150     0.5410    -0.0820 cd         1 BH9       0.209200
     13 C14          6.3540    -0.2950    -0.0760 cd         1 BH9      -0.154000
     14 N14          1.2630     1.7680    -0.1760 nd         1 BH9      -0.339600
     15 N15         -0.7540     0.3870    -0.0590 ns         1 BH9      -0.384100
     16 C16         -1.5170    -0.7620     0.0300 c          1 BH9       0.623700
     17 C17         -3.0240    -0.5670     0.0290 ca         1 BH9      -0.156600
     18 C18         -3.6300     0.7090    -0.0560 ca         1 BH9      -0.068500
     19 C19         -5.0290     0.8400    -0.0520 ca         1 BH9      -0.120000
     20 C20         -5.8770    -0.2850     0.0360 ca         1 BH9      -0.038300
     21 C21         -5.2670    -1.5590     0.1210 ca         1 BH9      -0.120000
     22 C22         -3.8680    -1.6950     0.1170 ca         1 BH9      -0.068500
     23 C27         -7.4180    -0.0880     0.0360 c3         1 BH9      -0.003700
     24 C28         -8.2040    -1.4250     0.1380 c3         1 BH9      -0.083433
     25 C32         -7.8210     0.7970     1.2470 c3         1 BH9      -0.083433
     26 C36         -7.8440     0.6160    -1.2810 c3         1 BH9      -0.083433
     27 O47         -1.0220    -1.8800     0.1040 o          1 BH9      -0.591100
     28 H2           7.7960     1.4320    -0.2120 h4         1 BH9       0.157000
     29 H4           5.9570    -2.5120     0.0850 h4         1 BH9       0.039100
     30 H7           3.9400    -1.5870     0.0380 h4         1 BH9       0.148000
     31 H10          3.5440     3.4260    -0.3140 ha         1 BH9       0.142000
     32 H11          5.8080     2.4250    -0.2640 ha         1 BH9       0.118000
     33 H12          1.4140    -1.5740     0.0600 h4         1 BH9       0.258000
     34 HN15        -1.3020     1.2310    -0.1140 hn         1 BH9       0.339500
     35 H18         -3.0370     1.6170    -0.1260 ha         1 BH9       0.124500
     36 H19         -5.4510     1.8400    -0.1190 ha         1 BH9       0.117000
     37 H21         -5.8570    -2.4670     0.1910 ha         1 BH9       0.117000
     38 H22         -3.4420    -2.6940     0.1850 ha         1 BH9       0.124500
     39 H28         -7.9620    -1.9560     1.0670 hc         1 BH9       0.036811
     40 H28A        -9.2860    -1.2440     0.1360 hc         1 BH9       0.036811
     41 H28B        -7.9790    -2.0830    -0.7100 hc         1 BH9       0.036811
     42 H32         -7.3730     1.7950     1.1870 hc         1 BH9       0.036811
     43 H32A        -8.9090     0.9260     1.2930 hc         1 BH9       0.036811
     44 H32B        -7.4950     0.3360     2.1870 hc         1 BH9       0.036811
     45 H36         -7.5350     0.0260    -2.1520 hc         1 BH9       0.036811
     46 H36A        -8.9330     0.7400    -1.3250 hc         1 BH9       0.036811
     47 H36B        -7.3960     1.6120    -1.3720 hc         1 BH9       0.036811
     48 HN1          9.5020    -0.5040    -0.0900 hn         1 BH9       0.375000
@<TRIPOS>BOND
     1     1     2 1   
     2     1     4 1   
     3     1    48 1   
     4     2    13 2   
     5     2    28 1   
     6     3     4 2   
     7     3    13 1   
     8     3    29 1   
     9     5     6 2   
    10     5    10 1   
    11     5    13 1   
    12     6     7 1   
    13     6    30 1   
    14     7     8 1   
    15     7    11 1   
    16     8     9 1   
    17     8    14 2   
    18     9    10 2   
    19     9    31 1   
    20    10    32 1   
    21    11    12 2   
    22    11    33 1   
    23    12    14 1   
    24    12    15 1   
    25    15    16 1   
    26    15    34 1   
    27    16    17 1   
    28    16    27 2   
    29    17    18 ar  
    30    17    22 ar  
    31    18    19 ar  
    32    18    35 1   
    33    19    20 ar  
    34    19    36 1   
    35    20    21 ar  
    36    20    23 1   
    37    21    22 ar  
    38    21    37 1   
    39    22    38 1   
    40    23    24 1   
    41    23    25 1   
    42    23    26 1   
    43    24    39 1   
    44    24    40 1   
    45    24    41 1   
    46    25    42 1   
    47    25    43 1   
    48    25    44 1   
    49    26    45 1   
    50    26    46 1   
    51    26    47 1   
@<TRIPOS>SUBSTRUCTURE
     1 BH9         1 TEMP              0 ****  ****    0 ROOT
