@<TRIPOS>MOLECULE
BHA
   17    17     1     0     0
SMALL
abcg2


@<TRIPOS>ATOM
      1 C1           0.2120    -0.0940    -2.0330 c          1 BHA       0.725600
      2 O1          -0.9370    -0.1520    -2.5860 o          1 BHA      -0.705500
      3 O2           1.2830    -0.0320    -2.6470 o          1 BHA      -0.705500
      4 C7           0.2120    -0.1020    -0.5370 ca         1 BHA      -0.300600
      5 C2          -1.0030    -0.1600     0.1790 ca         1 BHA       0.243100
      6 C3          -1.0010    -0.1600     1.5730 ca         1 BHA      -0.278000
      7 C4           0.1980    -0.1080     2.2850 ca         1 BHA       0.310000
      8 C5           1.4110    -0.0500     1.5760 ca         1 BHA      -0.269000
      9 C6           1.3950    -0.0480     0.1960 ca         1 BHA      -0.002000
     10 O3          -2.1640    -0.2110    -0.4710 oh         1 BHA      -0.637100
     11 N4           0.1980    -0.1610     3.6590 nv         1 BHA      -1.092000
     12 H3          -1.9450    -0.2030     2.1040 ha         1 BHA       0.100000
     13 H5           2.3490    -0.0050     2.1160 ha         1 BHA       0.086000
     14 H6           2.3350     0.0020    -0.3410 ha         1 BHA       0.115000
     15 HO2         -1.8780    -0.1970    -1.4600 ho         1 BHA       0.549000
     16 HN41         1.0180     0.2000     4.1180 hn         1 BHA       0.431000
     17 HN42        -0.6530     0.1230     4.1170 hn         1 BHA       0.431000
@<TRIPOS>BOND
     1     1     2 1   
     2     1     3 1   
     3     1     4 1   
     4     4     5 ar  
     5     4     9 ar  
     6     5     6 ar  
     7     5    10 1   
     8     6     7 ar  
     9     6    12 1   
    10     7     8 ar  
    11     7    11 1   
    12     8     9 ar  
    13     8    13 1   
    14     9    14 1   
    15    10    15 1   
    16    11    16 1   
    17    11    17 1   
@<TRIPOS>SUBSTRUCTURE
     1 BHA         1 TEMP              0 ****  ****    0 ROOT
