@<TRIPOS>MOLECULE
BHA
   17    17     1     0     0
SMALL
No Charge or Current Charge


@<TRIPOS>ATOM
      1 C1           0.2120    -0.1060    -2.0560 c          1 BHA       0.725600
      2 O1          -0.8610    -0.1600    -2.6420 o          1 BHA      -0.705500
      3 O2           1.2880    -0.0580    -2.6310 o          1 BHA      -0.705500
      4 C7           0.1960    -0.0990    -0.5450 ca         1 BHA      -0.300600
      5 C2          -1.0110    -0.1520     0.1840 ca         1 BHA       0.243100
      6 C3          -1.0110    -0.1450     1.5840 ca         1 BHA      -0.278000
      7 C4           0.1960    -0.0840     2.2780 ca         1 BHA       0.310000
      8 C5           1.4040    -0.0310     1.5810 ca         1 BHA      -0.269000
      9 C6           1.4110    -0.0380     0.1760 ca         1 BHA      -0.002000
     10 O3          -2.2000    -0.2110    -0.4640 oh         1 BHA      -0.637100
     11 N4           0.1980    -0.0750     3.6390 nv         1 BHA      -1.092000
     12 H3          -1.9520    -0.1860     2.1230 ha         1 BHA       0.100000
     13 H5           2.3470     0.0160     2.1200 ha         1 BHA       0.086000
     14 H6           2.3660     0.0040    -0.3460 ha         1 BHA       0.115000
     15 HO2         -1.9390    -0.2040    -1.4310 ho         1 BHA       0.549000
     16 HN41         1.0630     0.1260     4.1360 hn         1 BHA       0.431000
     17 HN42        -0.6780     0.0460     4.1420 hn         1 BHA       0.431000
@<TRIPOS>BOND
     1     1     2 1   
     2     1     3 1   
     3     1     4 1   
     4     4     5 ar  
     5     4     9 ar  
     6     5     6 ar  
     7     5    10 1   
     8     6     7 ar  
     9     6    12 1   
    10     7     8 ar  
    11     7    11 1   
    12     8     9 ar  
    13     8    13 1   
    14     9    14 1   
    15    10    15 1   
    16    11    16 1   
    17    11    17 1   
@<TRIPOS>SUBSTRUCTURE
     1 BHA         1 TEMP              0 ****  ****    0 ROOT
