@<TRIPOS>MOLECULE
BHB
   39    40     1     0     0
SMALL
No Charge or Current Charge


@<TRIPOS>ATOM
      1 N4          -3.7260    -0.3130    -2.8040 nv         1 BHB      -1.059000
      2 C6          -2.4090    -0.1050    -2.4760 ca         1 BHB       0.247000
      3 C1          -2.0570     0.2950    -1.1810 ca         1 BHB      -0.107000
      4 C2          -0.7090     0.5130    -0.8300 ca         1 BHB      -0.051300
      5 C3           0.3220     0.3300    -1.7920 ca         1 BHB       0.205400
      6 N3           1.6630     0.5590    -1.4130 nc         1 BHB      -0.695100
      7 C8           2.5070     0.3510    -2.3920 cd         1 BHB       0.708800
      8 N2           3.7740     0.5480    -2.0750 nv         1 BHB      -1.039200
      9 N1           2.2600    -0.0310    -3.6500 ns         1 BHB      -0.450400
     10 C7           1.0190    -0.2700    -4.1150 c          1 BHB       0.588600
     11 O1           0.8160    -0.6110    -5.2700 o          1 BHB      -0.543000
     12 C41         -0.0490    -0.0750    -3.0980 ca         1 BHB      -0.190600
     13 C5          -1.4040    -0.2900    -3.4330 ca         1 BHB      -0.098000
     14 C9          -0.4110     0.9480     0.6060 c3         1 BHB       0.131900
     15 S1          -0.6270    -0.4660     1.7850 ss         1 BHB      -0.442000
     16 C16         -0.2150     0.3870     3.3790 c3         1 BHB       0.060600
     17 C17         -0.3290    -0.5850     4.5770 c3         1 BHB       0.174800
     18 N18         -0.1150     0.0340     5.9140 n3         1 BHB      -0.714600
     19 C20         -0.4630    -0.8910     7.0160 c3         1 BHB       0.149600
     20 C19          1.2340     0.6210     6.0910 c3         1 BHB       0.149600
     21 HN41        -3.9950    -0.5280    -3.7630 hn         1 BHB       0.442000
     22 HN42        -4.4660    -0.1080    -2.1340 hn         1 BHB       0.442000
     23 H1          -2.8350     0.4360    -0.4350 ha         1 BHB       0.118000
     24 HN21         3.9260     0.6520    -1.0790 hn         1 BHB       0.490000
     25 HN22         4.4690    -0.0040    -2.5630 hn         1 BHB       0.490000
     26 HN1          3.0140    -0.1300    -4.3090 hn         1 BHB       0.323500
     27 H5          -1.6750    -0.6010    -4.4390 ha         1 BHB       0.134000
     28 H91         -1.1050     1.7510     0.8890 h1         1 BHB       0.069200
     29 H92          0.6050     1.3470     0.7060 h1         1 BHB       0.069200
     30 H161        -0.9070     1.2270     3.5250 h1         1 BHB       0.061700
     31 H162         0.8050     0.7840     3.3110 h1         1 BHB       0.061700
     32 H171         0.3870    -1.4060     4.4260 h1         1 BHB       0.043200
     33 H172        -1.3330    -1.0290     4.5410 h1         1 BHB       0.043200
     34 H201        -0.3770    -0.3870     7.9880 h1         1 BHB       0.030533
     35 H202        -1.4960    -1.2490     6.9130 h1         1 BHB       0.030533
     36 H203         0.2050    -1.7640     7.0200 h1         1 BHB       0.030533
     37 H191         1.4230     1.4140     5.3570 h1         1 BHB       0.030533
     38 H192         1.3330     1.0680     7.0900 h1         1 BHB       0.030533
     39 H193         2.0130    -0.1460     5.9810 h1         1 BHB       0.030533
@<TRIPOS>BOND
     1     1     2 1   
     2     1    21 1   
     3     1    22 1   
     4     2     3 ar  
     5     2    13 ar  
     6     3     4 ar  
     7     3    23 1   
     8     4     5 ar  
     9     4    14 1   
    10     5     6 1   
    11     5    12 ar  
    12     6     7 2   
    13     7     8 1   
    14     7     9 1   
    15     8    24 1   
    16     8    25 1   
    17     9    10 1   
    18     9    26 1   
    19    10    11 2   
    20    10    12 1   
    21    12    13 ar  
    22    13    27 1   
    23    14    15 1   
    24    14    28 1   
    25    14    29 1   
    26    15    16 1   
    27    16    17 1   
    28    16    30 1   
    29    16    31 1   
    30    17    18 1   
    31    17    32 1   
    32    17    33 1   
    33    18    19 1   
    34    18    20 1   
    35    19    34 1   
    36    19    35 1   
    37    19    36 1   
    38    20    37 1   
    39    20    38 1   
    40    20    39 1   
@<TRIPOS>SUBSTRUCTURE
     1 BHB         1 TEMP              0 ****  ****    0 ROOT
