@<TRIPOS>MOLECULE
BHB
   39    40     1     0     0
SMALL
bcc


@<TRIPOS>ATOM
      1 N4          -3.7950    -0.2860    -2.9700 nv         1 BHB      -0.810200
      2 C6          -2.4900    -0.0660    -2.5640 ca         1 BHB       0.108600
      3 C1          -2.2200     0.3870    -1.2600 ca         1 BHB      -0.125000
      4 C2          -0.9380     0.5780    -0.7920 ca         1 BHB      -0.051300
      5 C3           0.1630     0.3000    -1.6320 ca         1 BHB       0.205400
      6 N3           1.4310     0.4880    -1.1530 nc         1 BHB      -0.695100
      7 C8           2.4180     0.2440    -1.9500 cd         1 BHB       0.708800
      8 N2           3.6930     0.4610    -1.5620 nv         1 BHB      -0.928800
      9 N1           2.2450    -0.2010    -3.2340 ns         1 BHB      -0.517400
     10 C7           1.0190    -0.4300    -3.8130 c          1 BHB       0.731100
     11 O1           0.9370    -0.8300    -4.9630 o          1 BHB      -0.618500
     12 C41         -0.1070    -0.1510    -2.9320 ca         1 BHB      -0.190600
     13 C5          -1.4130    -0.3310    -3.3930 ca         1 BHB      -0.116000
     14 C9          -0.7130     1.0480     0.6100 c3         1 BHB       0.084000
     15 S1          -0.4840    -0.4040     1.6870 ss         1 BHB      -0.346200
     16 C16         -0.1940     0.4400     3.2690 c3         1 BHB       0.012700
     17 C17         -0.0980    -0.5980     4.3800 c3         1 BHB       0.174800
     18 N18          0.0370     0.0100     5.6900 n3         1 BHB      -0.714600
     19 C20         -0.2170    -0.9560     6.7370 c3         1 BHB       0.149600
     20 C19          1.3300     0.6360     5.8820 c3         1 BHB       0.149600
     21 HN41        -3.9340    -0.2710    -3.9690 hn         1 BHB       0.386800
     22 HN42        -4.4860     0.2810    -2.5050 hn         1 BHB       0.386800
     23 H1          -3.0540     0.6000    -0.5980 ha         1 BHB       0.136000
     24 HN21         3.8440     0.5900    -0.5760 hn         1 BHB       0.434800
     25 HN22         4.4500     0.0220    -2.0580 hn         1 BHB       0.434800
     26 HN1          3.0580    -0.3700    -3.8130 hn         1 BHB       0.323500
     27 H5          -1.5770    -0.6770    -4.4070 ha         1 BHB       0.152000
     28 H91         -1.5710     1.6170     0.9690 h1         1 BHB       0.069200
     29 H92          0.1760     1.6760     0.6730 h1         1 BHB       0.069200
     30 H161        -1.0230     1.1210     3.4710 h1         1 BHB       0.061700
     31 H162         0.7190     1.0310     3.1880 h1         1 BHB       0.061700
     32 H171         0.7270    -1.2990     4.1660 h1         1 BHB       0.043200
     33 H172        -1.0180    -1.1890     4.3770 h1         1 BHB       0.043200
     34 H201        -0.1800    -0.4670     7.7110 h1         1 BHB       0.030533
     35 H202        -1.2110    -1.3900     6.6190 h1         1 BHB       0.030533
     36 H203         0.5110    -1.7840     6.7530 h1         1 BHB       0.030533
     37 H191         1.5000     1.4210     5.1460 h1         1 BHB       0.030533
     38 H192         1.3700     1.1020     6.8670 h1         1 BHB       0.030533
     39 H193         2.1670    -0.0770     5.8130 h1         1 BHB       0.030533
@<TRIPOS>BOND
     1     1     2 1   
     2     1    21 1   
     3     1    22 1   
     4     2     3 ar  
     5     2    13 ar  
     6     3     4 ar  
     7     3    23 1   
     8     4     5 ar  
     9     4    14 1   
    10     5     6 1   
    11     5    12 ar  
    12     6     7 2   
    13     7     8 1   
    14     7     9 1   
    15     8    24 1   
    16     8    25 1   
    17     9    10 1   
    18     9    26 1   
    19    10    11 2   
    20    10    12 1   
    21    12    13 ar  
    22    13    27 1   
    23    14    15 1   
    24    14    28 1   
    25    14    29 1   
    26    15    16 1   
    27    16    17 1   
    28    16    30 1   
    29    16    31 1   
    30    17    18 1   
    31    17    32 1   
    32    17    33 1   
    33    18    19 1   
    34    18    20 1   
    35    19    34 1   
    36    19    35 1   
    37    19    36 1   
    38    20    37 1   
    39    20    38 1   
    40    20    39 1   
@<TRIPOS>SUBSTRUCTURE
     1 BHB         1 TEMP              0 ****  ****    0 ROOT
