@<TRIPOS>MOLECULE
BHC
   24    24     1     0     0
SMALL
No Charge or Current Charge


@<TRIPOS>ATOM
      1 C1          -0.0210    -0.0380     1.4400 ca         1 BHC      -0.133267
      2 CO1         -0.0250    -0.0360     2.9570 c          1 BHC       0.773433
      3 O11          0.3640     0.9660     3.5430 o          1 BHC      -0.820250
      4 O12         -0.4170    -1.0370     3.5420 o          1 BHC      -0.820250
      5 C2           1.2110    -0.0440     0.7330 ca         1 BHC      -0.133267
      6 CO2          2.5230    -0.0500     1.4950 c          1 BHC       0.773433
      7 O21          2.8300    -1.0540     2.1240 o          1 BHC      -0.820250
      8 O22          3.2280     0.9500     1.4550 o          1 BHC      -0.820250
      9 C3           1.2150    -0.0460    -0.6870 ca         1 BHC      -0.133267
     10 CO3          2.5310    -0.0530    -1.4410 c          1 BHC       0.773433
     11 O31          3.2260    -1.0590    -1.3970 o          1 BHC      -0.820250
     12 O32          2.8520     0.9490    -2.0690 o          1 BHC      -0.820250
     13 C4          -0.0130    -0.0400    -1.4000 ca         1 BHC      -0.133267
     14 CO4         -0.0080    -0.0420    -2.9170 c          1 BHC       0.773433
     15 O41          0.3740    -1.0470    -3.5010 o          1 BHC      -0.820250
     16 O42         -0.3880     0.9630    -3.5050 o          1 BHC      -0.820250
     17 C5          -1.2440    -0.0340    -0.6930 ca         1 BHC      -0.133267
     18 CO5         -2.5560    -0.0280    -1.4560 c          1 BHC       0.773433
     19 O51         -2.8740    -1.0300    -2.0830 o          1 BHC      -0.820250
     20 O52         -3.2520     0.9790    -1.4170 o          1 BHC      -0.820250
     21 C6          -1.2480    -0.0320     0.7260 ca         1 BHC      -0.133267
     22 CO6         -2.5640    -0.0250     1.4810 c          1 BHC       0.773433
     23 O61         -3.2690    -1.0250     1.4390 o          1 BHC      -0.820250
     24 O62         -2.8750     0.9800     2.1070 o          1 BHC      -0.820250
@<TRIPOS>BOND
     1     1     2 1   
     2     1     5 ar  
     3     1    21 ar  
     4     2     3 1   
     5     2     4 1   
     6     5     6 1   
     7     5     9 ar  
     8     6     7 1   
     9     6     8 1   
    10     9    10 1   
    11     9    13 ar  
    12    10    11 1   
    13    10    12 1   
    14    13    14 1   
    15    13    17 ar  
    16    14    15 1   
    17    14    16 1   
    18    17    18 1   
    19    17    21 ar  
    20    18    19 1   
    21    18    20 1   
    22    21    22 1   
    23    22    23 1   
    24    22    24 1   
@<TRIPOS>SUBSTRUCTURE
     1 BHC         1 TEMP              0 ****  ****    0 ROOT
