@<TRIPOS>MOLECULE
BHC
   24    24     1     0     0
SMALL
abcg2


@<TRIPOS>ATOM
      1 C1          -0.0160    -0.0430     1.4190 ca         1 BHC      -0.133267
      2 CO1         -0.0380    -0.0150     2.9380 c          1 BHC       0.773433
      3 O11          0.4890     0.9670     3.4910 o          1 BHC      -0.820250
      4 O12         -0.5820    -0.9850     3.5110 o          1 BHC      -0.820250
      5 C2           1.1980    -0.0290     0.7220 ca         1 BHC      -0.133267
      6 CO2          2.5160    -0.0380     1.4730 c          1 BHC       0.773433
      7 O21          2.6960    -0.9840     2.2680 o          1 BHC      -0.820250
      8 O22          3.3010     0.9060     1.2500 o          1 BHC      -0.820250
      9 C3           1.1960    -0.0400    -0.6680 ca         1 BHC      -0.133267
     10 CO3          2.5020    -0.0680    -1.4370 c          1 BHC       0.773433
     11 O31          3.2550    -1.0440    -1.2330 o          1 BHC      -0.820250
     12 O32          2.7100     0.8860    -2.2150 o          1 BHC      -0.820250
     13 C4          -0.0090    -0.0430    -1.3720 ca         1 BHC      -0.133267
     14 CO4          0.0010    -0.0430    -2.8860 c          1 BHC       0.773433
     15 O41          0.5700    -1.0050    -3.4380 o          1 BHC      -0.820250
     16 O42         -0.5640     0.9130    -3.4530 o          1 BHC      -0.820250
     17 C5          -1.2200    -0.0510    -0.6830 ca         1 BHC      -0.133267
     18 CO5         -2.5300     0.0050    -1.4370 c          1 BHC       0.773433
     19 O51         -2.8030    -0.9420    -2.1990 o          1 BHC      -0.820250
     20 O52         -3.2290     1.0180    -1.2330 o          1 BHC      -0.820250
     21 C6          -1.2250    -0.0550     0.7170 ca         1 BHC      -0.133267
     22 CO6         -2.5440    -0.0780     1.4710 c          1 BHC       0.773433
     23 O61         -3.2940    -1.0500     1.2480 o          1 BHC      -0.820250
     24 O62         -2.7800     0.8840     2.2230 o          1 BHC      -0.820250
@<TRIPOS>BOND
     1     1     2 1   
     2     1     5 ar  
     3     1    21 ar  
     4     2     3 1   
     5     2     4 1   
     6     5     6 1   
     7     5     9 ar  
     8     6     7 1   
     9     6     8 1   
    10     9    10 1   
    11     9    13 ar  
    12    10    11 1   
    13    10    12 1   
    14    13    14 1   
    15    13    17 ar  
    16    14    15 1   
    17    14    16 1   
    18    17    18 1   
    19    17    21 ar  
    20    18    19 1   
    21    18    20 1   
    22    21    22 1   
    23    22    23 1   
    24    22    24 1   
@<TRIPOS>SUBSTRUCTURE
     1 BHC         1 TEMP              0 ****  ****    0 ROOT
