@<TRIPOS>MOLECULE
BHD
   15    14     1     0     0
SMALL
bcc


@<TRIPOS>ATOM
      1 N           42.0100    33.5620    17.9940 n8         1 BHD      -0.878800
      2 CA          42.3010    33.6210    19.4300 c3         1 BHD       0.019500
      3 CB          41.5390    32.4840    20.1320 c3         1 BHD       0.023100
      4 OB          40.1610    32.5470    19.8480 oh         1 BHD      -0.662800
      5 CG          41.7150    32.5200    21.6700 c          1 BHD       0.902600
      6 OD1         40.6810    32.8610    22.2960 o          1 BHD      -0.843300
      7 OD2         42.8150    32.2160    22.1540 o          1 BHD      -0.843300
      8 C           43.8240    33.5700    19.6980 c          1 BHD       0.927600
      9 O           44.4290    32.5960    19.1960 o          1 BHD      -0.863800
     10 OXT         44.3340    34.5160    20.3310 o          1 BHD      -0.863800
     11 H           42.4040    34.3850    17.5510 hn         1 BHD       0.299300
     12 H2          42.5410    32.7860    17.6140 hn         1 BHD       0.299300
     13 HA          41.9030    34.5700    19.8060 h1         1 BHD       0.034700
     14 HB          41.9470    31.5330    19.7600 h1         1 BHD       0.035700
     15 HOB         39.7970    32.7730    20.7260 ho         1 BHD       0.413000
@<TRIPOS>BOND
     1     1     2 1   
     2     1    11 1   
     3     1    12 1   
     4     2     3 1   
     5     2     8 1   
     6     2    13 1   
     7     3     4 1   
     8     3     5 1   
     9     3    14 1   
    10     4    15 1   
    11     5     6 1   
    12     5     7 1   
    13     8     9 1   
    14     8    10 1   
@<TRIPOS>SUBSTRUCTURE
     1 BHD         1 TEMP              0 ****  ****    0 ROOT
