@<TRIPOS>MOLECULE
BHD
   15    14     1     0     0
SMALL
No Charge or Current Charge


@<TRIPOS>ATOM
      1 N           41.9170    33.5780    17.9300 n8         1 BHD      -0.878800
      2 CA          42.2410    33.5800    19.4170 c3         1 BHD       0.019500
      3 CB          41.5750    32.3810    20.1640 c3         1 BHD       0.023100
      4 OB          40.1470    32.3000    19.8450 oh         1 BHD      -0.662800
      5 CG          41.8610    32.4870    21.7160 c          1 BHD       0.902600
      6 OD1         41.2120    33.2910    22.3780 o          1 BHD      -0.843300
      7 OD2         42.6170    31.6730    22.2350 o          1 BHD      -0.843300
      8 C           43.7830    33.6470    19.8060 c          1 BHD       0.927600
      9 O           44.5580    32.8400    19.3010 o          1 BHD      -0.863800
     10 OXT         44.1800    34.5930    20.4780 o          1 BHD      -0.863800
     11 H           42.3600    34.3900    17.4880 hn         1 BHD       0.299300
     12 H2          42.3750    32.7700    17.4980 hn         1 BHD       0.299300
     13 HA          41.7920    34.4980    19.8210 h1         1 BHD       0.034700
     14 HB          42.0660    31.4620    19.8170 h1         1 BHD       0.035700
     15 HOB         39.7160    33.0500    20.3120 ho         1 BHD       0.413000
@<TRIPOS>BOND
     1     1     2 1   
     2     1    11 1   
     3     1    12 1   
     4     2     3 1   
     5     2     8 1   
     6     2    13 1   
     7     3     4 1   
     8     3     5 1   
     9     3    14 1   
    10     4    15 1   
    11     5     6 1   
    12     5     7 1   
    13     8     9 1   
    14     8    10 1   
@<TRIPOS>SUBSTRUCTURE
     1 BHD         1 TEMP              0 ****  ****    0 ROOT
