@<TRIPOS>MOLECULE
BHE
   68    69     1     0     0
SMALL
No Charge or Current Charge


@<TRIPOS>ATOM
      1 C1          -2.6010    -1.6730     0.7460 c6         1 BHE       0.368300
      2 O1           0.4970     0.9120     0.0920 os         1 BHE      -0.431000
      3 C2          -3.6730    -2.5470    -0.0000 c6         1 BHE       0.112300
      4 O2          -4.6180    -1.7550    -0.7720 oh         1 BHE      -0.720000
      5 C3          -2.9540    -3.5740    -0.9260 c6         1 BHE       0.156300
      6 O3          -3.9270    -4.3860    -1.6080 oh         1 BHE      -0.642000
      7 C4          -1.9290    -4.4240    -0.1040 c6         1 BHE       0.148300
      8 O4          -2.6050    -5.2360     0.8890 oh         1 BHE      -0.696000
      9 C5          -0.9230    -3.4210     0.5590 c6         1 BHE       0.139300
     10 O5          -1.6250    -2.4950     1.4230 os         1 BHE      -0.447000
     11 C6           0.1670    -4.1100     1.4200 c3         1 BHE      -0.093100
     12 O6          -0.7580     5.5610    -1.1450 oh         1 BHE      -0.708000
     13 C6B          8.0120     0.2170     0.4030 c3         1 BHE      -0.075400
     14 C5B          6.8150     0.9100    -0.2850 c3         1 BHE      -0.074400
     15 C4B          5.4500     0.4690     0.2880 c3         1 BHE      -0.074400
     16 C3B          4.2540     1.1620    -0.4000 c3         1 BHE      -0.073400
     17 C2B          2.8890     0.7200     0.1720 c3         1 BHE      -0.083400
     18 C1B          1.6970     1.4110    -0.5170 c3         1 BHE       0.164600
     19 C1A         -0.7430     1.4020    -0.4520 c6         1 BHE       0.391300
     20 O5A         -0.8360     2.8110    -0.1520 os         1 BHE      -0.463000
     21 C5A         -2.0220     3.4410    -0.6930 c6         1 BHE       0.152300
     22 C6A         -1.9110     4.9900    -0.4950 c3         1 BHE       0.169600
     23 C4A         -3.3070     2.8210    -0.0470 c6         1 BHE       0.109300
     24 O4A         -3.3930     3.0400     1.3810 oh         1 BHE      -0.688000
     25 C3A         -3.2970     1.2890    -0.3120 c6         1 BHE       0.157300
     26 O3A         -4.4480     0.7020     0.3220 oh         1 BHE      -0.698000
     27 C2A         -1.9540     0.6360     0.1730 c6         1 BHE       0.165300
     28 O2A         -1.9070    -0.7830    -0.1590 os         1 BHE      -0.502000
     29 H1          -3.1290    -1.0830     1.5110 h2         1 BHE       0.091700
     30 H2          -4.2100    -3.1120     0.7780 h1         1 BHE       0.109700
     31 HO2         -4.5740    -0.8230    -0.4060 ho         1 BHE       0.517000
     32 H3          -2.3840    -3.0040    -1.6760 h1         1 BHE       0.038700
     33 HO3         -4.6840    -3.7740    -1.7600 ho         1 BHE       0.453000
     34 H4          -1.3720    -5.0670    -0.8020 h1         1 BHE       0.042700
     35 HO4         -1.9290    -5.8330     1.2820 ho         1 BHE       0.501000
     36 H5          -0.4090    -2.8540    -0.2320 h1         1 BHE       0.053700
     37 H6           0.7250    -4.8480     0.8320 hc         1 BHE       0.045700
     38 H6A          0.8890    -3.3730     1.7930 hc         1 BHE       0.045700
     39 H6B         -0.2630    -4.6220     2.2890 hc         1 BHE       0.045700
     40 HO6         -0.7320     6.5160    -0.8990 ho         1 BHE       0.507000
     41 H6BA         7.9100    -0.8700     0.2950 hc         1 BHE       0.037200
     42 C19          9.3770     0.6580    -0.1690 c3         1 BHE      -0.074400
     43 H6BB         7.9850     0.4360     1.4780 hc         1 BHE       0.037200
     44 H5B          6.9170     1.9970    -0.1760 hc         1 BHE       0.037200
     45 H5BA         6.8420     0.6920    -1.3600 hc         1 BHE       0.037200
     46 H4B          5.3490    -0.6180     0.1790 hc         1 BHE       0.038200
     47 H4BA         5.4230     0.6880     1.3630 hc         1 BHE       0.038200
     48 H3B          4.3550     2.2490    -0.2910 hc         1 BHE       0.039200
     49 H3BA         4.2810     0.9440    -1.4760 hc         1 BHE       0.039200
     50 H2B          2.7850    -0.3660     0.0610 hc         1 BHE       0.051200
     51 H2BA         2.8580     0.9410     1.2460 hc         1 BHE       0.051200
     52 H1B          1.7100     1.1840    -1.5910 h1         1 BHE       0.033200
     53 H1BA         1.7780     2.4990    -0.3900 h1         1 BHE       0.033200
     54 H1A         -0.7460     1.2560    -1.5420 h2         1 BHE       0.022700
     55 H5A         -2.0510     3.2540    -1.7770 h1         1 BHE       0.048700
     56 H6AA        -1.8730     5.2020     0.5820 h1         1 BHE       0.028200
     57 H6AB        -2.8270     5.4510    -0.8880 h1         1 BHE       0.028200
     58 H4A         -4.1880     3.2540    -0.5450 h1         1 BHE       0.033700
     59 HO4A        -3.5340     4.0030     1.5310 ho         1 BHE       0.502000
     60 H3A         -3.3660     1.1350    -1.3990 h1         1 BHE       0.037700
     61 HO3A        -4.6320     1.3120     1.0810 ho         1 BHE       0.506000
     62 H2A         -1.8700     0.7520     1.2630 h1         1 BHE       0.098700
     63 H34          9.4080     0.4390    -1.2440 hc         1 BHE       0.036700
     64 H35          9.4830     1.7450    -0.0610 hc         1 BHE       0.036700
     65 C20         10.5710    -0.0330     0.5170 c3         1 BHE      -0.088100
     66 H36         10.5870     0.1960     1.5890 hc         1 BHE       0.031367
     67 H37         10.5120    -1.1210     0.3950 hc         1 BHE       0.031367
     68 H38         11.5150     0.3110     0.0780 hc         1 BHE       0.031367
@<TRIPOS>BOND
     1     1     3 1   
     2     1    10 1   
     3     1    28 1   
     4     1    29 1   
     5     2    18 1   
     6     2    19 1   
     7     3     4 1   
     8     3     5 1   
     9     3    30 1   
    10     4    31 1   
    11     5     6 1   
    12     5     7 1   
    13     5    32 1   
    14     6    33 1   
    15     7     8 1   
    16     7     9 1   
    17     7    34 1   
    18     8    35 1   
    19     9    10 1   
    20     9    11 1   
    21     9    36 1   
    22    11    37 1   
    23    11    38 1   
    24    11    39 1   
    25    12    22 1   
    26    12    40 1   
    27    13    14 1   
    28    13    41 1   
    29    13    42 1   
    30    13    43 1   
    31    14    15 1   
    32    14    44 1   
    33    14    45 1   
    34    15    16 1   
    35    15    46 1   
    36    15    47 1   
    37    16    17 1   
    38    16    48 1   
    39    16    49 1   
    40    17    18 1   
    41    17    50 1   
    42    17    51 1   
    43    18    52 1   
    44    18    53 1   
    45    19    20 1   
    46    19    27 1   
    47    19    54 1   
    48    20    21 1   
    49    21    22 1   
    50    21    23 1   
    51    21    55 1   
    52    22    56 1   
    53    22    57 1   
    54    23    24 1   
    55    23    25 1   
    56    23    58 1   
    57    24    59 1   
    58    25    26 1   
    59    25    27 1   
    60    25    60 1   
    61    26    61 1   
    62    27    28 1   
    63    27    62 1   
    64    42    63 1   
    65    42    64 1   
    66    42    65 1   
    67    65    66 1   
    68    65    67 1   
    69    65    68 1   
@<TRIPOS>SUBSTRUCTURE
     1 BHE         1 TEMP              0 ****  ****    0 ROOT
