@<TRIPOS>MOLECULE
BHE
   68    69     1     0     0
SMALL
bcc


@<TRIPOS>ATOM
      1 C1          -2.3340    -1.5380     0.9040 c6         1 BHE       0.321900
      2 O1           0.1530     0.9150     0.2390 os         1 BHE      -0.384600
      3 C2          -3.1490    -2.6980     0.3280 c6         1 BHE       0.089100
      4 O2          -4.4360    -2.2950    -0.0770 oh         1 BHE      -0.597800
      5 C3          -2.3650    -3.3500    -0.8110 c6         1 BHE       0.133100
      6 O3          -3.0470    -4.4510    -1.3560 oh         1 BHE      -0.579800
      7 C4          -1.0070    -3.8050    -0.2940 c6         1 BHE       0.125100
      8 O4          -1.2150    -4.8570     0.6190 oh         1 BHE      -0.573800
      9 C5          -0.2830    -2.6080     0.3330 c6         1 BHE       0.116100
     10 O5          -1.0820    -1.9720     1.3250 os         1 BHE      -0.400600
     11 C6           1.0190    -3.0030     0.9990 c3         1 BHE      -0.093100
     12 O6          -0.7790     5.4440    -1.0970 oh         1 BHE      -0.585800
     13 C6B          7.5070    -0.2740     0.4100 c3         1 BHE      -0.075400
     14 C5B          6.3730     0.5000    -0.2500 c3         1 BHE      -0.074400
     15 C4B          4.9960     0.0760     0.2450 c3         1 BHE      -0.074400
     16 C3B          3.8550     0.8730    -0.3760 c3         1 BHE      -0.073400
     17 C2B          2.4940     0.4520     0.1640 c3         1 BHE      -0.083400
     18 C1B          1.3640     1.2790    -0.4080 c3         1 BHE       0.141400
     19 C1A         -0.9770     1.4630    -0.3150 c6         1 BHE       0.344900
     20 O5A         -0.9940     2.8370    -0.0250 os         1 BHE      -0.416600
     21 C5A         -2.0850     3.5240    -0.6000 c6         1 BHE       0.129100
     22 C6A         -1.8970     5.0060    -0.3640 c3         1 BHE       0.146400
     23 C4A         -3.3970     2.9980    -0.0140 c6         1 BHE       0.086100
     24 O4A         -3.4930     3.2250     1.3700 oh         1 BHE      -0.565800
     25 C3A         -3.4560     1.4920    -0.2720 c6         1 BHE       0.134100
     26 O3A         -4.5870     0.8810     0.2910 oh         1 BHE      -0.575800
     27 C2A         -2.2160     0.7950     0.2830 c6         1 BHE       0.142100
     28 O2A         -2.2620    -0.5600    -0.0960 os         1 BHE      -0.455600
     29 H1          -2.8280    -1.1380     1.7980 h2         1 BHE       0.091700
     30 H2          -3.2880    -3.4330     1.1270 h1         1 BHE       0.109700
     31 HO2         -4.3840    -1.3950    -0.4210 ho         1 BHE       0.418000
     32 H3          -2.1780    -2.5920    -1.5850 h1         1 BHE       0.038700
     33 HO3         -3.9060    -4.1390    -1.6590 ho         1 BHE       0.414000
     34 H4          -0.3990    -4.1400    -1.1470 h1         1 BHE       0.042700
     35 HO4         -0.3720    -5.2900     0.7850 ho         1 BHE       0.402000
     36 H5          -0.0620    -1.8990    -0.4750 h1         1 BHE       0.053700
     37 H6           1.6830    -3.4810     0.2770 hc         1 BHE       0.045700
     38 H6A          1.5350    -2.1280     1.3910 hc         1 BHE       0.045700
     39 H6B          0.8610    -3.6920     1.8290 hc         1 BHE       0.045700
     40 HO6         -0.6400     6.3750    -0.9000 ho         1 BHE       0.408000
     41 H6BA         7.3750    -1.3450     0.2240 hc         1 BHE       0.037200
     42 C19          8.8910     0.1510    -0.0660 c3         1 BHE      -0.074400
     43 H6BB         7.4440    -0.1480     1.4970 hc         1 BHE       0.037200
     44 H5B          6.5090     1.5720    -0.0660 hc         1 BHE       0.037200
     45 H5BA         6.4280     0.3710    -1.3370 hc         1 BHE       0.037200
     46 H4B          4.8500    -0.9900     0.0410 hc         1 BHE       0.038200
     47 H4BA         4.9550     0.1830     1.3340 hc         1 BHE       0.038200
     48 H3B          4.0090     1.9400    -0.1800 hc         1 BHE       0.039200
     49 H3BA         3.8770     0.7560    -1.4640 hc         1 BHE       0.039200
     50 H2B          2.3250    -0.6050    -0.0590 hc         1 BHE       0.051200
     51 H2BA         2.4930     0.5490     1.2550 hc         1 BHE       0.051200
     52 H1B          1.2760     1.1110    -1.4900 h1         1 BHE       0.033200
     53 H1BA         1.5710     2.3450    -0.2640 h1         1 BHE       0.033200
     54 H1A         -0.9820     1.3210    -1.4140 h2         1 BHE       0.022700
     55 H5A         -2.1150     3.3520    -1.6890 h1         1 BHE       0.048700
     56 H6AA        -1.7740     5.1950     0.7090 h1         1 BHE       0.028200
     57 H6AB        -2.8160     5.5160    -0.6810 h1         1 BHE       0.028200
     58 H4A         -4.2280     3.4720    -0.5540 h1         1 BHE       0.033700
     59 HO4A        -3.8800     4.0920     1.5180 ho         1 BHE       0.403000
     60 H3A         -3.4480     1.3600    -1.3640 h1         1 BHE       0.037700
     61 HO3A        -5.3640     1.1580    -0.2050 ho         1 BHE       0.407000
     62 H2A         -2.1800     0.8990     1.3760 h1         1 BHE       0.098700
     63 H34          8.9580     0.0160    -1.1500 hc         1 BHE       0.036700
     64 H35          9.0200     1.2230     0.1130 hc         1 BHE       0.036700
     65 C20         10.0120    -0.6200     0.6150 c3         1 BHE      -0.088100
     66 H36          9.9880    -0.4760     1.6970 hc         1 BHE       0.031367
     67 H37          9.9260    -1.6920     0.4260 hc         1 BHE       0.031367
     68 H38         10.9930    -0.3010     0.2620 hc         1 BHE       0.031367
@<TRIPOS>BOND
     1     1     3 1   
     2     1    10 1   
     3     1    28 1   
     4     1    29 1   
     5     2    18 1   
     6     2    19 1   
     7     3     4 1   
     8     3     5 1   
     9     3    30 1   
    10     4    31 1   
    11     5     6 1   
    12     5     7 1   
    13     5    32 1   
    14     6    33 1   
    15     7     8 1   
    16     7     9 1   
    17     7    34 1   
    18     8    35 1   
    19     9    10 1   
    20     9    11 1   
    21     9    36 1   
    22    11    37 1   
    23    11    38 1   
    24    11    39 1   
    25    12    22 1   
    26    12    40 1   
    27    13    14 1   
    28    13    41 1   
    29    13    42 1   
    30    13    43 1   
    31    14    15 1   
    32    14    44 1   
    33    14    45 1   
    34    15    16 1   
    35    15    46 1   
    36    15    47 1   
    37    16    17 1   
    38    16    48 1   
    39    16    49 1   
    40    17    18 1   
    41    17    50 1   
    42    17    51 1   
    43    18    52 1   
    44    18    53 1   
    45    19    20 1   
    46    19    27 1   
    47    19    54 1   
    48    20    21 1   
    49    21    22 1   
    50    21    23 1   
    51    21    55 1   
    52    22    56 1   
    53    22    57 1   
    54    23    24 1   
    55    23    25 1   
    56    23    58 1   
    57    24    59 1   
    58    25    26 1   
    59    25    27 1   
    60    25    60 1   
    61    26    61 1   
    62    27    28 1   
    63    27    62 1   
    64    42    63 1   
    65    42    64 1   
    66    42    65 1   
    67    65    66 1   
    68    65    67 1   
    69    65    68 1   
@<TRIPOS>SUBSTRUCTURE
     1 BHE         1 TEMP              0 ****  ****    0 ROOT
