@<TRIPOS>MOLECULE
BHF
   33    36     1     0     0
SMALL
abcg2


@<TRIPOS>ATOM
      1 C8           1.3020    -1.9410    -0.0020 cc         1 BHF      -0.380200
      2 C9           0.0140    -2.5960    -0.0100 c          1 BHF       0.594900
      3 O2          -0.1200    -3.8140    -0.0290 o          1 BHF      -0.546100
      4 C10         -1.1300    -1.6790    -0.0060 ca         1 BHF      -0.230600
      5 C11         -2.4640    -2.1590    -0.0330 ca         1 BHF      -0.034000
      6 C12         -3.5120    -1.2940    -0.0360 ca         1 BHF      -0.135000
      7 C13         -3.2960     0.1120    -0.0110 ca         1 BHF       0.004000
      8 C14         -4.3740     1.0220    -0.0150 ca         1 BHF      -0.110000
      9 C15         -4.1480     2.3740     0.0090 ca         1 BHF      -0.088000
     10 C16         -2.8330     2.8730     0.0390 ca         1 BHF      -0.119000
     11 C17         -1.7640     2.0170     0.0430 ca         1 BHF      -0.073000
     12 C18         -1.9760     0.6210     0.0170 ca         1 BHF      -0.061000
     13 C19         -0.9110    -0.3210     0.0170 ca         1 BHF       0.174100
     14 O1           0.3310     0.1970     0.0450 os         1 BHF      -0.213200
     15 C7           1.4110    -0.5960     0.0320 cd         1 BHF       0.201900
     16 C1           2.6690     0.1600     0.0420 ca         1 BHF      -0.072800
     17 C2           2.7170     1.4730    -0.4320 ca         1 BHF      -0.073000
     18 C3           3.9170     2.1670    -0.4390 ca         1 BHF      -0.116500
     19 C4           5.0770     1.5670     0.0320 ca         1 BHF      -0.088000
     20 C5           5.0330     0.2650     0.5140 ca         1 BHF      -0.116500
     21 C6           3.8380    -0.4340     0.5210 ca         1 BHF      -0.073000
     22 H8           2.1930    -2.5500    -0.0430 ha         1 BHF       0.215000
     23 H11         -2.6290    -3.2270    -0.0520 ha         1 BHF       0.139000
     24 H12         -4.5280    -1.6660    -0.0570 ha         1 BHF       0.122000
     25 H14         -5.3860     0.6380    -0.0380 ha         1 BHF       0.119000
     26 H15         -4.9810     3.0630     0.0060 ha         1 BHF       0.116000
     27 H16         -2.6670     3.9420     0.0590 ha         1 BHF       0.116000
     28 H17         -0.7590     2.4160     0.0680 ha         1 BHF       0.124000
     29 H2           1.8270     1.9550    -0.8150 ha         1 BHF       0.124000
     30 H3           3.9450     3.1800    -0.8180 ha         1 BHF       0.119000
     31 H4           6.0110     2.1130     0.0250 ha         1 BHF       0.117000
     32 H5           5.9310    -0.2050     0.8920 ha         1 BHF       0.119000
     33 H6           3.8150    -1.4400     0.9200 ha         1 BHF       0.124000
@<TRIPOS>BOND
     1     1     2 1   
     2     1    15 2   
     3     1    22 1   
     4     2     3 2   
     5     2     4 1   
     6     4     5 ar  
     7     4    13 ar  
     8     5     6 ar  
     9     5    23 1   
    10     6     7 ar  
    11     6    24 1   
    12     7     8 ar  
    13     7    12 ar  
    14     8     9 ar  
    15     8    25 1   
    16     9    10 ar  
    17     9    26 1   
    18    10    11 ar  
    19    10    27 1   
    20    11    12 ar  
    21    11    28 1   
    22    12    13 ar  
    23    13    14 1   
    24    14    15 1   
    25    15    16 1   
    26    16    17 ar  
    27    16    21 ar  
    28    17    18 ar  
    29    17    29 1   
    30    18    19 ar  
    31    18    30 1   
    32    19    20 ar  
    33    19    31 1   
    34    20    21 ar  
    35    20    32 1   
    36    21    33 1   
@<TRIPOS>SUBSTRUCTURE
     1 BHF         1 TEMP              0 ****  ****    0 ROOT
