@<TRIPOS>MOLECULE
BHF
   33    36     1     0     0
SMALL
No Charge or Current Charge


@<TRIPOS>ATOM
      1 C8           1.2970    -1.9590     0.1580 cc         1 BHF      -0.380200
      2 C9          -0.0130    -2.6010     0.1690 c          1 BHF       0.594900
      3 O2          -0.1400    -3.8150     0.2340 o          1 BHF      -0.546100
      4 C10         -1.1800    -1.6740     0.0970 ca         1 BHF      -0.230600
      5 C11         -2.5020    -2.1660     0.1000 ca         1 BHF      -0.034000
      6 C12         -3.5840    -1.2760     0.0300 ca         1 BHF      -0.135000
      7 C13         -3.3590     0.1100    -0.0420 ca         1 BHF       0.004000
      8 C14         -4.4510     0.9960    -0.1110 ca         1 BHF      -0.110000
      9 C15         -4.2340     2.3810    -0.1840 ca         1 BHF      -0.088000
     10 C16         -2.9230     2.8850    -0.1880 ca         1 BHF      -0.119000
     11 C17         -1.8280     2.0070    -0.1190 ca         1 BHF      -0.073000
     12 C18         -2.0370     0.6110    -0.0460 ca         1 BHF      -0.061000
     13 C19         -0.9500    -0.2900     0.0240 ca         1 BHF       0.174100
     14 O1           0.3390     0.1960     0.0210 os         1 BHF      -0.213200
     15 C7           1.4580    -0.5920     0.0860 cd         1 BHF       0.201900
     16 C1           2.7430     0.1530     0.0680 ca         1 BHF      -0.072800
     17 C2           2.7590     1.5670    -0.0100 ca         1 BHF      -0.073000
     18 C3           3.9730     2.2760    -0.0270 ca         1 BHF      -0.116500
     19 C4           5.1930     1.5870     0.0340 ca         1 BHF      -0.088000
     20 C5           5.1970     0.1870     0.1110 ca         1 BHF      -0.116500
     21 C6           3.9840    -0.5250     0.1280 ca         1 BHF      -0.073000
     22 H8           2.1280    -2.6460     0.2110 ha         1 BHF       0.215000
     23 H11         -2.6940    -3.2370     0.1550 ha         1 BHF       0.139000
     24 H12         -4.5990    -1.6660     0.0330 ha         1 BHF       0.122000
     25 H14         -5.4690     0.6120    -0.1090 ha         1 BHF       0.119000
     26 H15         -5.0800     3.0630    -0.2370 ha         1 BHF       0.116000
     27 H16         -2.7550     3.9590    -0.2440 ha         1 BHF       0.116000
     28 H17         -0.8220     2.4190    -0.1230 ha         1 BHF       0.124000
     29 H2           1.8320     2.1330    -0.0580 ha         1 BHF       0.124000
     30 H3           3.9660     3.3620    -0.0870 ha         1 BHF       0.119000
     31 H4           6.1320     2.1370     0.0210 ha         1 BHF       0.117000
     32 H5           6.1420    -0.3510     0.1590 ha         1 BHF       0.119000
     33 H6           4.0280    -1.6080     0.1890 ha         1 BHF       0.124000
@<TRIPOS>BOND
     1     1     2 1   
     2     1    15 2   
     3     1    22 1   
     4     2     3 2   
     5     2     4 1   
     6     4     5 ar  
     7     4    13 ar  
     8     5     6 ar  
     9     5    23 1   
    10     6     7 ar  
    11     6    24 1   
    12     7     8 ar  
    13     7    12 ar  
    14     8     9 ar  
    15     8    25 1   
    16     9    10 ar  
    17     9    26 1   
    18    10    11 ar  
    19    10    27 1   
    20    11    12 ar  
    21    11    28 1   
    22    12    13 ar  
    23    13    14 1   
    24    14    15 1   
    25    15    16 1   
    26    16    17 ar  
    27    16    21 ar  
    28    17    18 ar  
    29    17    29 1   
    30    18    19 ar  
    31    18    30 1   
    32    19    20 ar  
    33    19    31 1   
    34    20    21 ar  
    35    20    32 1   
    36    21    33 1   
@<TRIPOS>SUBSTRUCTURE
     1 BHF         1 TEMP              0 ****  ****    0 ROOT
