@<TRIPOS>MOLECULE
BHG
   42    42     1     0     0
SMALL
No Charge or Current Charge


@<TRIPOS>ATOM
      1 C1          18.0980    63.2400    46.8810 c6         1 BHG       0.366300
      2 O1          17.4250    64.5070    46.7960 os         1 BHG      -0.431000
      3 C2          17.1540    62.0700    46.4330 c6         1 BHG       0.110300
      4 O2          15.9810    61.9310    47.2710 oh         1 BHG      -0.679000
      5 C3          17.9500    60.7260    46.4080 c6         1 BHG       0.108300
      6 O3          17.1370    59.6770    45.8570 oh         1 BHG      -0.631000
      7 C4          19.2570    60.8650    45.5690 c6         1 BHG       0.108300
      8 O4          18.9090    61.0620    44.1800 oh         1 BHG      -0.716000
      9 C5          20.0700    62.0750    46.1210 c6         1 BHG       0.103300
     10 O5          19.2680    63.2790    46.0320 os         1 BHG      -0.475000
     11 C6          21.4110    62.3340    45.3670 c3         1 BHG       0.168600
     12 O6          21.9420    63.6230    45.7100 oh         1 BHG      -0.696000
     13 C7          18.1310    65.6370    47.3330 c3         1 BHG       0.167600
     14 C8          17.2290    66.8820    47.1950 c3         1 BHG      -0.092400
     15 C9          15.9340    66.8160    48.0380 c3         1 BHG      -0.075400
     16 C10         15.0660    68.0880    47.9110 c3         1 BHG      -0.075400
     17 C11         13.7720    68.0230    48.7520 c3         1 BHG      -0.075400
     18 C12         12.9060    69.2910    48.6260 c3         1 BHG      -0.088100
     19 H1          18.4110    63.0710    47.9220 h2         1 BHG       0.012700
     20 H2          16.8400    62.2980    45.4040 h1         1 BHG       0.097700
     21 HO2         15.6310    61.0280    47.0810 ho         1 BHG       0.498000
     22 H3          18.2340    60.4750    47.4420 h1         1 BHG       0.067700
     23 HO3         17.3670    59.6620    44.8980 ho         1 BHG       0.458000
     24 H4          19.8560    59.9490    45.6920 h1         1 BHG       0.089700
     25 HO4         18.8390    62.0370    44.0470 ho         1 BHG       0.520000
     26 H5          20.3130    61.8960    47.1790 h1         1 BHG       0.035700
     27 H61         21.2310    62.2790    44.2850 h1         1 BHG       0.060200
     28 H62         22.1220    61.5360    45.6230 h1         1 BHG       0.060200
     29 HO6         21.1410    64.1800    45.8600 ho         1 BHG       0.495000
     30 H1'1        19.0660    65.8070    46.7830 h1         1 BHG       0.042700
     31 H1'2        18.3790    65.4770    48.3910 h1         1 BHG       0.042700
     32 H2'1        16.9740    67.0230    46.1370 hc         1 BHG       0.050700
     33 H2'2        17.8080    67.7620    47.4990 hc         1 BHG       0.050700
     34 H3'1        16.1980    66.6640    49.0920 hc         1 BHG       0.038700
     35 H3'2        15.3410    65.9460    47.7280 hc         1 BHG       0.038700
     36 H4'1        14.8020    68.2390    46.8570 hc         1 BHG       0.038200
     37 H4'2        15.6550    68.9590    48.2230 hc         1 BHG       0.038200
     38 H5'1        14.0320    67.8730    49.8080 hc         1 BHG       0.035700
     39 H5'2        13.1790    67.1540    48.4420 hc         1 BHG       0.035700
     40 H6'1        12.6000    69.4500    47.5840 hc         1 BHG       0.031700
     41 H6'2        13.4610    70.1760    48.9630 hc         1 BHG       0.031700
     42 H6'3        12.0020    69.1990    49.2390 hc         1 BHG       0.031700
@<TRIPOS>BOND
     1     1     2 1   
     2     1     3 1   
     3     1    10 1   
     4     1    19 1   
     5     2    13 1   
     6     3     4 1   
     7     3     5 1   
     8     3    20 1   
     9     4    21 1   
    10     5     6 1   
    11     5     7 1   
    12     5    22 1   
    13     6    23 1   
    14     7     8 1   
    15     7     9 1   
    16     7    24 1   
    17     8    25 1   
    18     9    10 1   
    19     9    11 1   
    20     9    26 1   
    21    11    12 1   
    22    11    27 1   
    23    11    28 1   
    24    12    29 1   
    25    13    14 1   
    26    13    30 1   
    27    13    31 1   
    28    14    15 1   
    29    14    32 1   
    30    14    33 1   
    31    15    16 1   
    32    15    34 1   
    33    15    35 1   
    34    16    17 1   
    35    16    36 1   
    36    16    37 1   
    37    17    18 1   
    38    17    38 1   
    39    17    39 1   
    40    18    40 1   
    41    18    41 1   
    42    18    42 1   
@<TRIPOS>SUBSTRUCTURE
     1 BHG         1 TEMP              0 ****  ****    0 ROOT
