@<TRIPOS>MOLECULE
BHG
   42    42     1     0     0
SMALL
bcc


@<TRIPOS>ATOM
      1 C1          18.0340    63.7560    46.2240 c6         1 BHG       0.319900
      2 O1          17.6490    64.8920    45.5600 os         1 BHG      -0.384600
      3 C2          17.0450    62.6260    45.9180 c6         1 BHG       0.087100
      4 O2          15.7470    62.9360    46.3550 oh         1 BHG      -0.556800
      5 C3          17.5580    61.3140    46.5270 c6         1 BHG       0.085100
      6 O3          16.7400    60.2230    46.1990 oh         1 BHG      -0.568800
      7 C4          19.0230    61.0560    46.1570 c6         1 BHG       0.085100
      8 O4          19.1450    60.6610    44.8060 oh         1 BHG      -0.593800
      9 C5          19.8530    62.2910    46.4870 c6         1 BHG       0.080100
     10 O5          19.3290    63.4040    45.7900 os         1 BHG      -0.428600
     11 C6          21.3210    62.1320    46.1280 c3         1 BHG       0.145400
     12 O6          22.1070    63.2310    46.5140 oh         1 BHG      -0.573800
     13 C7          18.1790    66.1210    46.0430 c3         1 BHG       0.144400
     14 C8          17.0580    67.0930    46.3540 c3         1 BHG      -0.092400
     15 C9          16.1530    66.6380    47.4930 c3         1 BHG      -0.075400
     16 C10         15.0930    67.6700    47.8560 c3         1 BHG      -0.075400
     17 C11         14.1760    67.2160    48.9850 c3         1 BHG      -0.075400
     18 C12         13.1250    68.2550    49.3470 c3         1 BHG      -0.088100
     19 H1          18.0610    63.9230    47.3200 h2         1 BHG       0.012700
     20 H2          16.9770    62.5210    44.8280 h1         1 BHG       0.097700
     21 HO2         15.7420    62.9780    47.3190 ho         1 BHG       0.399000
     22 H3          17.5140    61.4130    47.6200 h1         1 BHG       0.067700
     23 HO3         16.9030    60.0040    45.2740 ho         1 BHG       0.419000
     24 H4          19.3860    60.2130    46.7530 h1         1 BHG       0.089700
     25 HO4         19.0670    61.4390    44.2400 ho         1 BHG       0.421000
     26 H5          19.7770    62.4580    47.5760 h1         1 BHG       0.035700
     27 H61         21.4320    62.0330    45.0470 h1         1 BHG       0.060200
     28 H62         21.6760    61.1950    46.5750 h1         1 BHG       0.060200
     29 HO6         22.1140    63.2780    47.4750 ho         1 BHG       0.396000
     30 H1'1        18.8450    66.5400    45.2830 h1         1 BHG       0.042700
     31 H1'2        18.7810    65.9550    46.9440 h1         1 BHG       0.042700
     32 H2'1        16.4650    67.2740    45.4520 hc         1 BHG       0.050700
     33 H2'2        17.5190    68.0520    46.6120 hc         1 BHG       0.050700
     34 H3'1        16.7650    66.4250    48.3760 hc         1 BHG       0.038700
     35 H3'2        15.6660    65.6970    47.2240 hc         1 BHG       0.038700
     36 H4'1        14.4910    67.9030    46.9710 hc         1 BHG       0.038200
     37 H4'2        15.5820    68.6070    48.1440 hc         1 BHG       0.038200
     38 H5'1        14.7800    66.9810    49.8670 hc         1 BHG       0.035700
     39 H5'2        13.6850    66.2800    48.6980 hc         1 BHG       0.035700
     40 H6'1        12.4790    68.4760    48.4960 hc         1 BHG       0.031700
     41 H6'2        13.5900    69.1920    49.6580 hc         1 BHG       0.031700
     42 H6'3        12.4890    67.9150    50.1650 hc         1 BHG       0.031700
@<TRIPOS>BOND
     1     1     2 1   
     2     1     3 1   
     3     1    10 1   
     4     1    19 1   
     5     2    13 1   
     6     3     4 1   
     7     3     5 1   
     8     3    20 1   
     9     4    21 1   
    10     5     6 1   
    11     5     7 1   
    12     5    22 1   
    13     6    23 1   
    14     7     8 1   
    15     7     9 1   
    16     7    24 1   
    17     8    25 1   
    18     9    10 1   
    19     9    11 1   
    20     9    26 1   
    21    11    12 1   
    22    11    27 1   
    23    11    28 1   
    24    12    29 1   
    25    13    14 1   
    26    13    30 1   
    27    13    31 1   
    28    14    15 1   
    29    14    32 1   
    30    14    33 1   
    31    15    16 1   
    32    15    34 1   
    33    15    35 1   
    34    16    17 1   
    35    16    36 1   
    36    16    37 1   
    37    17    18 1   
    38    17    38 1   
    39    17    39 1   
    40    18    40 1   
    41    18    41 1   
    42    18    42 1   
@<TRIPOS>SUBSTRUCTURE
     1 BHG         1 TEMP              0 ****  ****    0 ROOT
