@<TRIPOS>MOLECULE
BHH
   22    21     1     0     0
SMALL
No Charge or Current Charge


@<TRIPOS>ATOM
      1 C4          -0.4850    -0.0160     4.6690 c3         1 BHH      -0.089100
      2 C3           0.4110    -0.0050     3.4140 c3         1 BHH      -0.073400
      3 C2          -0.3940    -0.0130     2.0960 c3         1 BHH      -0.091400
      4 C1           0.5060    -0.0020     0.8430 c3         1 BHH       0.219800
      5 NE          -0.3120    -0.0020    -0.3780 nu         1 BHH      -0.900400
      6 CZ           0.1920     0.0120    -1.6250 c2         1 BHH       0.751100
      7 NH1         -0.7730    -0.0570    -2.5870 nu         1 BHH      -0.674900
      8 NH2          1.4190     0.0280    -1.8910 n2         1 BHH      -0.856100
      9 OH          -0.3350     0.1250    -3.9920 oh         1 BHH      -0.445300
     10 H41          0.1290    -0.0100     5.5770 hc         1 BHH       0.033033
     11 H42         -1.1360     0.8660     4.6890 hc         1 BHH       0.033033
     12 H43         -1.1150    -0.9130     4.6880 hc         1 BHH       0.033033
     13 H31          1.0530     0.8840     3.4430 hc         1 BHH       0.041200
     14 H32          1.0730    -0.8790     3.4420 hc         1 BHH       0.041200
     15 H21         -1.0350    -0.9040     2.0730 hc         1 BHH       0.041700
     16 H22         -1.0550     0.8630     2.0730 hc         1 BHH       0.041700
     17 H11          1.1450     0.8920     0.8680 h1         1 BHH       0.052200
     18 H12          1.1600    -0.8850     0.8600 h1         1 BHH       0.052200
     19 HE1         -1.2350    -0.4170    -0.3120 hn         1 BHH       0.470000
     20 HH11        -1.5680     0.5540    -2.3790 hn         1 BHH       0.458000
     21 HH21         1.4350     0.0190    -2.9190 hn         1 BHH       0.399400
     22 HH1         -0.8770    -0.4910    -4.5480 ho         1 BHH       0.464000
@<TRIPOS>BOND
     1     1     2 1   
     2     1    10 1   
     3     1    11 1   
     4     1    12 1   
     5     2     3 1   
     6     2    13 1   
     7     2    14 1   
     8     3     4 1   
     9     3    15 1   
    10     3    16 1   
    11     4     5 1   
    12     4    17 1   
    13     4    18 1   
    14     5     6 1   
    15     5    19 1   
    16     6     7 1   
    17     6     8 2   
    18     7     9 1   
    19     7    20 1   
    20     8    21 1   
    21     9    22 1   
@<TRIPOS>SUBSTRUCTURE
     1 BHH         1 TEMP              0 ****  ****    0 ROOT
