@<TRIPOS>MOLECULE
BHH
   22    21     1     0     0
SMALL
bcc


@<TRIPOS>ATOM
      1 C4          -0.4080     0.0470     4.6130 c3         1 BHH      -0.089100
      2 C3           0.4260    -0.0570     3.3440 c3         1 BHH      -0.073400
      3 C2          -0.4260    -0.0020     2.0820 c3         1 BHH      -0.091400
      4 C1           0.4120    -0.0950     0.8160 c3         1 BHH       0.219800
      5 NE          -0.4320    -0.0340    -0.3570 nu         1 BHH      -0.845200
      6 CZ           0.1220     0.0420    -1.6030 c2         1 BHH       0.751100
      7 NH1         -0.8510    -0.1230    -2.5990 nu         1 BHH      -0.619700
      8 NH2          1.3700     0.2200    -1.7850 n2         1 BHH      -0.856100
      9 OH          -0.4200     0.2510    -3.8600 oh         1 BHH      -0.406300
     10 H41          0.2170     0.0100     5.5060 hc         1 BHH       0.033033
     11 H42         -0.9670     0.9840     4.6390 hc         1 BHH       0.033033
     12 H43         -1.1290    -0.7700     4.6800 hc         1 BHH       0.033033
     13 H31          1.1610     0.7520     3.3200 hc         1 BHH       0.041200
     14 H32          0.9990    -0.9890     3.3550 hc         1 BHH       0.041200
     15 H21         -1.1550    -0.8210     2.1030 hc         1 BHH       0.041700
     16 H22         -1.0030     0.9280     2.0660 hc         1 BHH       0.041700
     17 H11          1.1180     0.7360     0.7790 h1         1 BHH       0.052200
     18 H12          1.0130    -1.0140     0.8330 h1         1 BHH       0.052200
     19 HE1         -1.2880    -0.5650    -0.2930 hn         1 BHH       0.414800
     20 HH11        -1.7100     0.3750    -2.3940 hn         1 BHH       0.402800
     21 HH21         1.5680     0.3410    -2.7710 hn         1 BHH       0.399400
     22 HH1         -0.4140    -0.5670    -4.3710 ho         1 BHH       0.425000
@<TRIPOS>BOND
     1     1     2 1   
     2     1    10 1   
     3     1    11 1   
     4     1    12 1   
     5     2     3 1   
     6     2    13 1   
     7     2    14 1   
     8     3     4 1   
     9     3    15 1   
    10     3    16 1   
    11     4     5 1   
    12     4    17 1   
    13     4    18 1   
    14     5     6 1   
    15     5    19 1   
    16     6     7 1   
    17     6     8 2   
    18     7     9 1   
    19     7    20 1   
    20     8    21 1   
    21     9    22 1   
@<TRIPOS>SUBSTRUCTURE
     1 BHH         1 TEMP              0 ****  ****    0 ROOT
