@<TRIPOS>MOLECULE
BHJ
   94   100     1     0     0
SMALL
No Charge or Current Charge


@<TRIPOS>ATOM
      1 C4          -5.6530     6.4800    -1.1810 c6         1 BHJ       0.125300
      2 C5          -5.9660     7.5920    -0.1360 c6         1 BHJ       0.153100
      3 C13         -5.0320     4.1110    -1.5190 c3         1 BHJ       0.172800
      4 C22         -3.6840    -1.5220    -0.7160 cc         1 BHJ       0.323500
      5 C1          -4.5520     6.5150     1.4890 c6         1 BHJ       0.153100
      6 C2          -4.2130     5.3770     0.4810 c6         1 BHJ       0.125300
      7 C23         -5.0830    -1.6970    -0.5410 cc         1 BHJ      -0.198300
      8 C31         -7.9010    -1.6710    -0.6110 c6         1 BHJ       0.205800
      9 C15         -4.8960     2.6970    -0.9150 c3         1 BHJ      -0.102400
     10 C17         -4.7810     1.6020    -1.9950 c3         1 BHJ       0.082600
     11 C24         -5.6880    -0.5740    -0.9980 cd         1 BHJ      -0.130300
     12 C30         -7.1750    -0.3380    -0.9330 c6         1 BHJ      -0.008100
     13 C33         -5.8310    -2.8470     0.0910 c6         1 BHJ       0.287100
     14 C39         -2.5850    -2.4790    -0.4260 ca         1 BHJ      -0.111500
     15 C41         -1.2430    -2.0160    -0.4430 ca         1 BHJ      -0.059000
     16 C42         -0.1600    -2.8800    -0.1950 ca         1 BHJ       0.037000
     17 C43         -0.4020    -4.2450     0.0600 ca         1 BHJ       0.137000
     18 C44         -1.7180    -4.7270     0.0510 ca         1 BHJ      -0.109000
     19 C45         -2.7960    -3.8600    -0.1950 ca         1 BHJ      -0.087000
     20 C58         -8.6550    -4.7290    -0.1260 c3         1 BHJ      -0.384100
     21 C62          1.1750    -2.3500    -0.2070 cg         1 BHJ      -0.106000
     22 C64          2.3130    -1.9090    -0.2090 ch         1 BHJ      -0.085000
     23 C66          3.6490    -1.4130    -0.2050 ca         1 BHJ       0.028000
     24 C68          3.8950    -0.0430    -0.4070 ca         1 BHJ      -0.079000
     25 C69          5.2130     0.4550    -0.4040 ca         1 BHJ      -0.119300
     26 C70          6.2940    -0.4290    -0.1900 ca         1 BHJ      -0.069300
     27 C71          6.0440    -1.8000     0.0070 ca         1 BHJ      -0.110000
     28 C72          4.7270    -2.2910     0.0010 ca         1 BHJ      -0.082000
     29 C79          7.7410     0.0770    -0.1960 c6         1 BHJ      -0.069100
     30 C80          7.8780     1.6330    -0.1950 c6         1 BHJ       0.095500
     31 C82          5.4510     1.9530    -0.6080 c6         1 BHJ       0.200100
     32 C88          9.3530     2.1300    -0.5000 c          1 BHJ       0.610100
     33 C94         11.8290     1.6060    -0.4570 c6         1 BHJ       0.095500
     34 C95         12.6930     2.5570     0.4050 c6         1 BHJ      -0.099900
     35 C96         12.7210     2.0870     1.8770 c6         1 BHJ      -0.073400
     36 C97         11.2810     1.9320     2.4170 c6         1 BHJ      -0.099900
     37 C98         10.4330     1.0060     1.5100 c6         1 BHJ       0.095500
     38 N19         -4.6540     0.2490    -1.4310 na         1 BHJ       0.152800
     39 N21         -3.4110    -0.3420    -1.2590 nd         1 BHJ      -0.517800
     40 N3          -5.3060     5.1790    -0.5280 n3         1 BHJ      -0.714600
     41 N32         -7.2100    -2.4290     0.4720 n3         1 BHJ      -0.736500
     42 N81          6.8230     2.2330    -1.0850 n7         1 BHJ      -0.836400
     43 N92         10.4520     1.4550     0.0880 n          1 BHJ      -0.406800
     44 O54         -9.3240    -3.0050     1.7940 o          1 BHJ      -0.528500
     45 O56         -7.2420    -4.4110     2.0920 o          1 BHJ      -0.528500
     46 O6          -4.8580     7.7410     0.7830 os         1 BHJ      -0.448000
     47 O90          9.5560     3.0880    -1.2430 o          1 BHJ      -0.599100
     48 S52         -8.1490    -3.6630     1.2150 s6         1 BHJ       1.204100
     49 Cl6          0.9170    -5.3790     0.3750 cl         1 BHJ      -0.186000
     50 H1          -6.5290     6.3570    -1.8350 h1         1 BHJ       0.041700
     51 H2          -4.8220     6.8210    -1.8170 h1         1 BHJ       0.041700
     52 H3          -6.1420     8.5480    -0.6470 h1         1 BHJ       0.052200
     53 H4          -6.8740     7.3330     0.4280 h1         1 BHJ       0.052200
     54 H5          -4.1160     4.3450    -2.0800 h1         1 BHJ       0.031200
     55 H6          -5.8540     4.0820    -2.2470 h1         1 BHJ       0.031200
     56 H7          -5.4160     6.2260     2.1050 h1         1 BHJ       0.052200
     57 H8          -3.6980     6.6890     2.1590 h1         1 BHJ       0.052200
     58 H9          -3.2680     5.6240    -0.0250 h1         1 BHJ       0.041700
     59 H10         -4.0400     4.4560     1.0560 h1         1 BHJ       0.041700
     60 H11         -8.9380    -1.4330    -0.3300 h1         1 BHJ       0.058200
     61 H12         -7.9480    -2.2780    -1.5270 h1         1 BHJ       0.058200
     62 H13         -4.0090     2.6490    -0.2730 hc         1 BHJ       0.065700
     63 H14         -5.7680     2.4920    -0.2830 hc         1 BHJ       0.065700
     64 H15         -5.6680     1.6260    -2.6390 h1         1 BHJ       0.066200
     65 H16         -3.9050     1.8010    -2.6260 h1         1 BHJ       0.066200
     66 H17         -7.5580     0.0780    -1.8740 hc         1 BHJ       0.068200
     67 H18         -7.4010     0.3940    -0.1460 hc         1 BHJ       0.068200
     68 H19         -5.8750    -3.6860    -0.6190 h1         1 BHJ       0.061700
     69 H20         -5.2860    -3.1910     0.9820 h1         1 BHJ       0.061700
     70 H21         -1.0300    -0.9670    -0.6340 ha         1 BHJ       0.140000
     71 H22         -1.9030    -5.7840     0.2270 ha         1 BHJ       0.132000
     72 H23         -3.7830    -4.3010    -0.2340 ha         1 BHJ       0.118000
     73 H24         -7.7530    -5.0980    -0.6230 h1         1 BHJ       0.101367
     74 H25         -9.2250    -5.5530     0.3140 h1         1 BHJ       0.101367
     75 H26         -9.2790    -4.1440    -0.8080 h1         1 BHJ       0.101367
     76 H27          3.0600     0.6370    -0.5640 ha         1 BHJ       0.120000
     77 H28          6.8710    -2.4880     0.1650 ha         1 BHJ       0.115000
     78 H29          4.5470    -3.3530     0.1560 ha         1 BHJ       0.125000
     79 H30          8.2680    -0.3650     0.6570 hc         1 BHJ       0.062700
     80 H31          8.2400    -0.3210    -1.0910 hc         1 BHJ       0.062700
     81 H32          7.6840     1.9780     0.8310 h1         1 BHJ       0.074700
     82 H33          4.7230     2.3490    -1.3320 h1         1 BHJ       0.062700
     83 H34          5.2790     2.4720     0.3470 h1         1 BHJ       0.062700
     84 H36         12.3050     0.6150    -0.4870 h1         1 BHJ       0.054950
     85 H37         13.7140     2.6020     0.0040 hc         1 BHJ       0.050700
     86 H38         12.2860     3.5760     0.3470 hc         1 BHJ       0.050700
     87 H39         13.2510     1.1270     1.9510 hc         1 BHJ       0.042200
     88 H40         13.2800     2.8050     2.4920 hc         1 BHJ       0.042200
     89 H41         11.3040     1.5320     3.4400 hc         1 BHJ       0.050700
     90 H42         10.8020     2.9190     2.4780 hc         1 BHJ       0.050700
     91 H43         10.8230    -0.0210     1.5640 h1         1 BHJ       0.054950
     92 H44          9.4110     0.9910     1.9080 h1         1 BHJ       0.054950
     93 H46          6.9290     1.8380    -2.0280 hn         1 BHJ       0.434000
     94 H35         11.7960     1.9730    -1.4930 h1         1 BHJ       0.054950
@<TRIPOS>BOND
     1     1     2 1   
     2     1    40 1   
     3     1    50 1   
     4     1    51 1   
     5     2    46 1   
     6     2    52 1   
     7     2    53 1   
     8     3     9 1   
     9     3    40 1   
    10     3    54 1   
    11     3    55 1   
    12     4     7 1   
    13     4    14 1   
    14     4    39 2   
    15     5     6 1   
    16     5    46 1   
    17     5    56 1   
    18     5    57 1   
    19     6    40 1   
    20     6    58 1   
    21     6    59 1   
    22     7    11 2   
    23     7    13 1   
    24     8    12 1   
    25     8    41 1   
    26     8    60 1   
    27     8    61 1   
    28     9    10 1   
    29     9    62 1   
    30     9    63 1   
    31    10    38 1   
    32    10    64 1   
    33    10    65 1   
    34    11    12 1   
    35    11    38 1   
    36    12    66 1   
    37    12    67 1   
    38    13    41 1   
    39    13    68 1   
    40    13    69 1   
    41    14    15 ar  
    42    14    19 ar  
    43    15    16 ar  
    44    15    70 1   
    45    16    17 ar  
    46    16    21 1   
    47    17    18 ar  
    48    17    49 1   
    49    18    19 ar  
    50    18    71 1   
    51    19    72 1   
    52    20    48 1   
    53    20    73 1   
    54    20    74 1   
    55    20    75 1   
    56    21    22 3   
    57    22    23 1   
    58    23    24 ar  
    59    23    28 ar  
    60    24    25 ar  
    61    24    76 1   
    62    25    26 ar  
    63    25    31 1   
    64    26    27 ar  
    65    26    29 1   
    66    27    28 ar  
    67    27    77 1   
    68    28    78 1   
    69    29    30 1   
    70    29    79 1   
    71    29    80 1   
    72    30    32 1   
    73    30    42 1   
    74    30    81 1   
    75    31    42 1   
    76    31    82 1   
    77    31    83 1   
    78    32    43 1   
    79    32    47 2   
    80    33    34 1   
    81    33    43 1   
    82    33    84 1   
    83    33    94 1   
    84    34    35 1   
    85    34    85 1   
    86    34    86 1   
    87    35    36 1   
    88    35    87 1   
    89    35    88 1   
    90    36    37 1   
    91    36    89 1   
    92    36    90 1   
    93    37    43 1   
    94    37    91 1   
    95    37    92 1   
    96    38    39 1   
    97    41    48 1   
    98    42    93 1   
    99    44    48 2   
   100    45    48 2   
@<TRIPOS>SUBSTRUCTURE
     1 BHJ         1 TEMP              0 ****  ****    0 ROOT
