@<TRIPOS>MOLECULE
BHJ
   94   100     1     0     0
SMALL
bcc


@<TRIPOS>ATOM
      1 C4          -5.5430     6.4320    -0.5610 c6         1 BHJ       0.125300
      2 C5          -6.0850     7.3800     0.4910 c6         1 BHJ       0.129900
      3 C13         -4.8160     4.1920    -0.9820 c3         1 BHJ       0.172800
      4 C22         -3.6180    -1.3420    -0.3900 cc         1 BHJ       0.388800
      5 C1          -4.9470     6.2380     2.1590 c6         1 BHJ       0.129900
      6 C2          -4.3800     5.2620     1.1450 c6         1 BHJ       0.125300
      7 C23         -5.0040    -1.5760    -0.5390 cc         1 BHJ      -0.263600
      8 C31         -7.5580    -1.5670    -1.6230 c6         1 BHJ       0.205800
      9 C15         -4.8010     2.7480    -0.5010 c3         1 BHJ      -0.102400
     10 C17         -4.4910     1.8030    -1.6550 c3         1 BHJ       0.053300
     11 C24         -5.4940    -0.4190    -1.0920 cd         1 BHJ      -0.079600
     12 C30         -6.9040    -0.1960    -1.5000 c6         1 BHJ      -0.008100
     13 C33         -5.8780    -2.7470    -0.2300 c6         1 BHJ       0.287100
     14 C39         -2.5510    -2.2230     0.0940 ca         1 BHJ      -0.111500
     15 C41         -1.2210    -1.8170     0.0020 ca         1 BHJ      -0.077000
     16 C42         -0.1740    -2.6280     0.4380 ca         1 BHJ       0.037000
     17 C43         -0.4810    -3.8800     0.9860 ca         1 BHJ       0.045400
     18 C44         -1.7930    -4.3000     1.0850 ca         1 BHJ      -0.127000
     19 C45         -2.8170    -3.4790     0.6390 ca         1 BHJ      -0.105000
     20 C58         -8.4380    -4.7460    -1.0710 c3         1 BHJ      -0.273300
     21 C62          1.1720    -2.1980     0.3130 cg         1 BHJ      -0.106000
     22 C64          2.3270    -1.8610     0.2100 ch         1 BHJ      -0.085000
     23 C66          3.7010    -1.5150     0.1050 ca         1 BHJ       0.028000
     24 C68          4.1070    -0.3620    -0.5660 ca         1 BHJ      -0.097000
     25 C69          5.4530    -0.0390    -0.6860 ca         1 BHJ      -0.119300
     26 C70          6.4170    -0.8740    -0.1200 ca         1 BHJ      -0.069300
     27 C71          6.0080    -2.0240     0.5560 ca         1 BHJ      -0.128000
     28 C72          4.6720    -2.3500     0.6710 ca         1 BHJ      -0.100000
     29 C79          7.8830    -0.5580    -0.2460 c6         1 BHJ      -0.069100
     30 C80          8.1150     0.9010    -0.6600 c6         1 BHJ       0.095500
     31 C82          5.8680     1.2250    -1.4040 c6         1 BHJ       0.200100
     32 C88          9.5780     1.0890    -1.0500 c          1 BHJ       0.677100
     33 C94         11.8960     1.4200    -0.3820 c6         1 BHJ       0.095500
     34 C95         12.3230     2.8330    -0.0030 c6         1 BHJ      -0.099900
     35 C96         12.0180     3.1180     1.4640 c6         1 BHJ      -0.073400
     36 C97         10.5600     2.8100     1.7900 c6         1 BHJ      -0.099900
     37 C98         10.1950     1.3970     1.3490 c6         1 BHJ       0.095500
     38 N19         -4.4520     0.4200    -1.2310 na         1 BHJ       0.131400
     39 N21         -3.3190    -0.1180    -0.8060 nd         1 BHJ      -0.517800
     40 N3          -5.2890     5.1260     0.0200 n3         1 BHJ      -0.714600
     41 N32         -7.2750    -2.3420    -0.4130 n3         1 BHJ      -0.736500
     42 N81          7.2670     1.2880    -1.7680 n7         1 BHJ      -0.781200
     43 N92         10.4890     1.2120    -0.0650 n          1 BHJ      -0.473800
     44 O54         -9.7110    -2.7320     0.0300 o          1 BHJ      -0.599300
     45 O56         -7.9780    -3.9330     1.3850 o          1 BHJ      -0.599300
     46 O6          -5.2030     7.5000     1.5850 os         1 BHJ      -0.401600
     47 O90          9.8890     1.0530    -2.2350 o          1 BHJ      -0.599100
     48 S52         -8.4260    -3.4100     0.1030 s6         1 BHJ       1.234900
     49 CL6          0.7880    -4.9110     1.5350 cl         1 BHJ      -0.094400
     50 H1          -6.2810     6.3340    -1.3610 h1         1 BHJ       0.041700
     51 H2          -4.6330     6.8650    -1.0110 h1         1 BHJ       0.041700
     52 H3          -6.2180     8.3750     0.0650 h1         1 BHJ       0.052200
     53 H4          -7.0690     7.0230     0.8290 h1         1 BHJ       0.052200
     54 H5          -3.8130     4.4660    -1.3530 h1         1 BHJ       0.031200
     55 H6          -5.4910     4.2630    -1.8400 h1         1 BHJ       0.031200
     56 H7          -5.8670     5.8180     2.5900 h1         1 BHJ       0.052200
     57 H8          -4.2340     6.3860     2.9720 h1         1 BHJ       0.052200
     58 H9          -3.3810     5.6010     0.8200 h1         1 BHJ       0.041700
     59 H10         -4.2460     4.2980     1.6410 h1         1 BHJ       0.041700
     60 H11         -8.6320    -1.4500    -1.7420 h1         1 BHJ       0.058200
     61 H12         -7.1760    -2.0830    -2.5110 h1         1 BHJ       0.058200
     62 H13         -4.0550     2.5970     0.2820 hc         1 BHJ       0.065700
     63 H14         -5.7770     2.5000    -0.0740 hc         1 BHJ       0.065700
     64 H15         -5.2420     1.8960    -2.4420 h1         1 BHJ       0.066200
     65 H16         -3.5240     2.0340    -2.1000 h1         1 BHJ       0.066200
     66 H17         -6.9670     0.3200    -2.4600 hc         1 BHJ       0.068200
     67 H18         -7.4400     0.4120    -0.7670 hc         1 BHJ       0.068200
     68 H19         -5.6150    -3.6020    -0.8680 h1         1 BHJ       0.061700
     69 H20         -5.7490    -3.0560     0.8060 h1         1 BHJ       0.061700
     70 H21         -0.9790    -0.8530    -0.4230 ha         1 BHJ       0.158000
     71 H22         -2.0250    -5.2680     1.5060 ha         1 BHJ       0.150000
     72 H23         -3.8280    -3.8470     0.7340 ha         1 BHJ       0.136000
     73 H24         -7.4560    -5.2130    -1.1070 h1         1 BHJ       0.101367
     74 H25         -9.1770    -5.4750    -0.7440 h1         1 BHJ       0.101367
     75 H26         -8.7100    -4.3630    -2.0530 h1         1 BHJ       0.101367
     76 H27          3.3590     0.2880    -1.0050 ha         1 BHJ       0.138000
     77 H28          6.7540    -2.6730     0.9990 ha         1 BHJ       0.133000
     78 H29          4.3710    -3.2480     1.1940 ha         1 BHJ       0.143000
     79 H30          8.3900    -0.7960     0.6920 hc         1 BHJ       0.062700
     80 H31          8.3260    -1.2140    -1.0040 hc         1 BHJ       0.062700
     81 H32          7.8500     1.5580     0.1730 h1         1 BHJ       0.074700
     82 H33          5.2690     1.3510    -2.3080 h1         1 BHJ       0.062700
     83 H34          5.6320     2.0830    -0.7640 h1         1 BHJ       0.062700
     84 H36         12.4840     0.6890     0.1820 h1         1 BHJ       0.054950
     85 H37         13.3900     2.9500    -0.2020 hc         1 BHJ       0.050700
     86 H38         11.7990     3.5500    -0.6420 hc         1 BHJ       0.050700
     87 H39         12.6630     2.4950     2.0920 hc         1 BHJ       0.042200
     88 H40         12.2510     4.1560     1.7090 hc         1 BHJ       0.042200
     89 H41         10.3760     2.9080     2.8620 hc         1 BHJ       0.050700
     90 H42          9.9010     3.5230     1.2840 hc         1 BHJ       0.050700
     91 H43         10.7860     0.6690     1.9150 h1         1 BHJ       0.054950
     92 H44          9.1540     1.1790     1.5650 h1         1 BHJ       0.054950
     93 H46          7.4460     0.6840    -2.5610 hn         1 BHJ       0.378800
     94 H35         12.0610     1.2250    -1.4380 h1         1 BHJ       0.054950
@<TRIPOS>BOND
     1     1     2 1   
     2     1    40 1   
     3     1    50 1   
     4     1    51 1   
     5     2    46 1   
     6     2    52 1   
     7     2    53 1   
     8     3     9 1   
     9     3    40 1   
    10     3    54 1   
    11     3    55 1   
    12     4     7 1   
    13     4    14 1   
    14     4    39 2   
    15     5     6 1   
    16     5    46 1   
    17     5    56 1   
    18     5    57 1   
    19     6    40 1   
    20     6    58 1   
    21     6    59 1   
    22     7    11 2   
    23     7    13 1   
    24     8    12 1   
    25     8    41 1   
    26     8    60 1   
    27     8    61 1   
    28     9    10 1   
    29     9    62 1   
    30     9    63 1   
    31    10    38 1   
    32    10    64 1   
    33    10    65 1   
    34    11    12 1   
    35    11    38 1   
    36    12    66 1   
    37    12    67 1   
    38    13    41 1   
    39    13    68 1   
    40    13    69 1   
    41    14    15 ar  
    42    14    19 ar  
    43    15    16 ar  
    44    15    70 1   
    45    16    17 ar  
    46    16    21 1   
    47    17    18 ar  
    48    17    49 1   
    49    18    19 ar  
    50    18    71 1   
    51    19    72 1   
    52    20    48 1   
    53    20    73 1   
    54    20    74 1   
    55    20    75 1   
    56    21    22 3   
    57    22    23 1   
    58    23    24 ar  
    59    23    28 ar  
    60    24    25 ar  
    61    24    76 1   
    62    25    26 ar  
    63    25    31 1   
    64    26    27 ar  
    65    26    29 1   
    66    27    28 ar  
    67    27    77 1   
    68    28    78 1   
    69    29    30 1   
    70    29    79 1   
    71    29    80 1   
    72    30    32 1   
    73    30    42 1   
    74    30    81 1   
    75    31    42 1   
    76    31    82 1   
    77    31    83 1   
    78    32    43 1   
    79    32    47 2   
    80    33    34 1   
    81    33    43 1   
    82    33    84 1   
    83    33    94 1   
    84    34    35 1   
    85    34    85 1   
    86    34    86 1   
    87    35    36 1   
    88    35    87 1   
    89    35    88 1   
    90    36    37 1   
    91    36    89 1   
    92    36    90 1   
    93    37    43 1   
    94    37    91 1   
    95    37    92 1   
    96    38    39 1   
    97    41    48 1   
    98    42    93 1   
    99    44    48 2   
   100    45    48 2   
@<TRIPOS>SUBSTRUCTURE
     1 BHJ         1 TEMP              0 ****  ****    0 ROOT
