@<TRIPOS>MOLECULE
BHK
   29    29     1     0     0
SMALL
No Charge or Current Charge


@<TRIPOS>ATOM
      1 CAH         -2.6550    -1.3690    -0.5620 ca         1 BHK      -0.096000
      2 CAI         -3.8410    -0.9970    -1.2170 ca         1 BHK      -0.121500
      3 CAJ         -4.4960     0.1950    -0.8630 ca         1 BHK      -0.136000
      4 CAK         -3.9630     1.0140     0.1460 ca         1 BHK      -0.121500
      5 CAL         -2.7760     0.6410     0.8020 ca         1 BHK      -0.096000
      6 CAG         -2.1140    -0.5530     0.4520 ca         1 BHK      -0.014300
      7 CAD         -0.8290    -0.9610     1.1620 c3         1 BHK      -0.000100
      8 CAB          0.4410    -0.6990     0.3100 c3         1 BHK      -0.192700
      9 CAC          0.6010     0.8060    -0.0070 c          1 BHK       0.718000
     10 OAN          0.6000     1.1450    -1.1790 o          1 BHK      -0.727500
     11 OAM          0.7910     1.5810     0.9180 o          1 BHK      -0.727500
     12 CAA          1.7190    -1.2860     0.9860 c3         1 BHK      -0.140400
     13 CAE          2.9620    -1.1770     0.0770 c          1 BHK       0.628100
     14 OAO          3.1330    -1.9570    -0.8580 o          1 BHK      -0.533100
     15 CAF          3.9810    -0.0500     0.4400 c3         1 BHK       0.054600
     16 OAP          5.2620    -0.1590    -0.2330 oh         1 BHK      -0.632000
     17 HAH         -2.1530    -2.2930    -0.8400 ha         1 BHK       0.109500
     18 HAI         -4.2530    -1.6320    -1.9980 ha         1 BHK       0.092000
     19 HAJ         -5.4140     0.4830    -1.3700 ha         1 BHK       0.089000
     20 HAK         -4.4680     1.9370     0.4210 ha         1 BHK       0.092000
     21 HAL         -2.3690     1.2820     1.5810 ha         1 BHK       0.109500
     22 HAD         -0.7380    -0.4380     2.1220 hc         1 BHK       0.022700
     23 HADA        -0.8800    -2.0290     1.4070 hc         1 BHK       0.022700
     24 HAB          0.3050    -1.2260    -0.6430 hc         1 BHK       0.054700
     25 HAA          1.8940    -0.7420     1.9220 hc         1 BHK       0.028200
     26 HAAA         1.5410    -2.3460     1.2040 hc         1 BHK       0.028200
     27 HAF          3.5060     0.9100     0.2010 h1         1 BHK       0.034700
     28 HAFA         4.1270    -0.0760     1.5280 h1         1 BHK       0.034700
     29 HOAP         5.8160     0.6000     0.0590 ho         1 BHK       0.420000
@<TRIPOS>BOND
     1     1     2 ar  
     2     1     6 ar  
     3     1    17 1   
     4     2     3 ar  
     5     2    18 1   
     6     3     4 ar  
     7     3    19 1   
     8     4     5 ar  
     9     4    20 1   
    10     5     6 ar  
    11     5    21 1   
    12     6     7 1   
    13     7     8 1   
    14     7    22 1   
    15     7    23 1   
    16     8     9 1   
    17     8    12 1   
    18     8    24 1   
    19     9    10 1   
    20     9    11 1   
    21    12    13 1   
    22    12    25 1   
    23    12    26 1   
    24    13    14 2   
    25    13    15 1   
    26    15    16 1   
    27    15    27 1   
    28    15    28 1   
    29    16    29 1   
@<TRIPOS>SUBSTRUCTURE
     1 BHK         1 TEMP              0 ****  ****    0 ROOT
