@<TRIPOS>MOLECULE
BHK
   29    29     1     0     0
SMALL
bcc


@<TRIPOS>ATOM
      1 CAH         -2.4900    -1.2070    -0.5670 ca         1 BHK      -0.114000
      2 CAI         -3.7400    -1.0770    -1.1600 ca         1 BHK      -0.139500
      3 CAJ         -4.6460    -0.1390    -0.6810 ca         1 BHK      -0.154000
      4 CAK         -4.2860     0.6650     0.3940 ca         1 BHK      -0.139500
      5 CAL         -3.0320     0.5350     0.9740 ca         1 BHK      -0.114000
      6 CAG         -2.1140    -0.4020     0.5070 ca         1 BHK      -0.014300
      7 CAD         -0.7740    -0.5830     1.1670 c3         1 BHK      -0.000100
      8 CAB          0.4310    -0.3700     0.2490 c3         1 BHK      -0.192700
      9 CAC          0.6720     1.1090    -0.1150 c          1 BHK       0.928600
     10 OAN          1.8430     1.3990    -0.4510 o          1 BHK      -0.832800
     11 OAM         -0.2930     1.8890    -0.0620 o          1 BHK      -0.832800
     12 CAA          1.7020    -0.9620     0.8540 c3         1 BHK      -0.140400
     13 CAE          2.8570    -0.9800    -0.1170 c          1 BHK       0.628100
     14 OAO          2.7700    -1.4710    -1.2200 o          1 BHK      -0.533100
     15 CAF          4.1650    -0.4800     0.4350 c3         1 BHK       0.031400
     16 OAP          5.1690    -0.5710    -0.5340 oh         1 BHK      -0.569800
     17 HAH         -1.8010    -1.9520    -0.9500 ha         1 BHK       0.127500
     18 HAI         -4.0080    -1.7120    -1.9950 ha         1 BHK       0.110000
     19 HAJ         -5.6220    -0.0390    -1.1370 ha         1 BHK       0.107000
     20 HAK         -4.9830     1.3980     0.7790 ha         1 BHK       0.110000
     21 HAL         -2.7600     1.1710     1.8080 ha         1 BHK       0.127500
     22 HAD         -0.7050     0.0780     2.0350 hc         1 BHK       0.022700
     23 HADA        -0.7300    -1.6040     1.5600 hc         1 BHK       0.022700
     24 HAB          0.2390    -0.9070    -0.6900 hc         1 BHK       0.054700
     25 HAA          1.9780    -0.4290     1.7670 hc         1 BHK       0.028200
     26 HAAA         1.5240    -2.0030     1.1470 hc         1 BHK       0.028200
     27 HAF          4.0020     0.5440     0.7920 h1         1 BHK       0.034700
     28 HAFA         4.3840    -1.0830     1.3310 h1         1 BHK       0.034700
     29 HOAP         5.9770    -0.2130    -0.1550 ho         1 BHK       0.381000
@<TRIPOS>BOND
     1     1     2 ar  
     2     1     6 ar  
     3     1    17 1   
     4     2     3 ar  
     5     2    18 1   
     6     3     4 ar  
     7     3    19 1   
     8     4     5 ar  
     9     4    20 1   
    10     5     6 ar  
    11     5    21 1   
    12     6     7 1   
    13     7     8 1   
    14     7    22 1   
    15     7    23 1   
    16     8     9 1   
    17     8    12 1   
    18     8    24 1   
    19     9    10 1   
    20     9    11 1   
    21    12    13 1   
    22    12    25 1   
    23    12    26 1   
    24    13    14 2   
    25    13    15 1   
    26    15    16 1   
    27    15    27 1   
    28    15    28 1   
    29    16    29 1   
@<TRIPOS>SUBSTRUCTURE
     1 BHK         1 TEMP              0 ****  ****    0 ROOT
