@<TRIPOS>MOLECULE
BHL
   21    20     1     0     0
SMALL
No Charge or Current Charge


@<TRIPOS>ATOM
      1 Br1          0.1290     0.0140    -3.1930 br         1 BHL      -0.280000
      2 C1          -0.8480     0.0090    -1.4570 c3         1 BHL       0.095600
      3 C2           0.1270     0.0060    -0.2640 c3         1 BHL      -0.078400
      4 C3          -0.5950     0.0030     1.1020 c3         1 BHL      -0.077400
      5 C4           0.3800    -0.0000     2.3000 c3         1 BHL      -0.075400
      6 C5          -0.3400    -0.0040     3.6670 c3         1 BHL      -0.082400
      7 C6           0.6350    -0.0070     4.8610 c3         1 BHL       0.164600
      8 O7          -0.1020    -0.0100     6.0870 oh         1 BHL      -0.662000
      9 H11         -1.4810    -0.8880    -1.4490 h1         1 BHL       0.070700
     10 H12         -1.4810     0.9060    -1.4440 h1         1 BHL       0.070700
     11 H21          0.7750     0.8890    -0.3300 hc         1 BHL       0.055700
     12 H22          0.7750    -0.8760    -0.3350 hc         1 BHL       0.055700
     13 H31         -1.2440    -0.8800     1.1640 hc         1 BHL       0.041700
     14 H32         -1.2450     0.8850     1.1680 hc         1 BHL       0.041700
     15 H41          1.0300     0.8820     2.2390 hc         1 BHL       0.039700
     16 H42          1.0300    -0.8820     2.2340 hc         1 BHL       0.039700
     17 H51         -0.9890    -0.8860     3.7310 hc         1 BHL       0.052700
     18 H52         -0.9890     0.8780     3.7360 hc         1 BHL       0.052700
     19 H61          1.2780     0.8820     4.8070 h1         1 BHL       0.015700
     20 H62          1.2780    -0.8950     4.8020 h1         1 BHL       0.015700
     21 HO7          0.5580    -0.0120     6.8160 ho         1 BHL       0.443000
@<TRIPOS>BOND
     1     1     2 1   
     2     2     3 1   
     3     2     9 1   
     4     2    10 1   
     5     3     4 1   
     6     3    11 1   
     7     3    12 1   
     8     4     5 1   
     9     4    13 1   
    10     4    14 1   
    11     5     6 1   
    12     5    15 1   
    13     5    16 1   
    14     6     7 1   
    15     6    17 1   
    16     6    18 1   
    17     7     8 1   
    18     7    19 1   
    19     7    20 1   
    20     8    21 1   
@<TRIPOS>SUBSTRUCTURE
     1 BHL         1 TEMP              0 ****  ****    0 ROOT
