@<TRIPOS>MOLECULE
BHL
   21    20     1     0     0
SMALL
bcc


@<TRIPOS>ATOM
      1 BR1          0.0770     0.0040    -3.1240 br         1 BHL      -0.197400
      2 C1          -0.8330     0.0100    -1.3720 c3         1 BHL       0.013000
      3 C2           0.1560     0.0070    -0.2280 c3         1 BHL      -0.078400
      4 C3          -0.5810     0.0020     1.1100 c3         1 BHL      -0.077400
      5 C4           0.3760     0.0010     2.2960 c3         1 BHL      -0.075400
      6 C5          -0.3480    -0.0050     3.6370 c3         1 BHL      -0.082400
      7 C6           0.6200    -0.0070     4.8030 c3         1 BHL       0.141400
      8 O7          -0.1110    -0.0070     6.0120 oh         1 BHL      -0.599800
      9 H11         -1.4710    -0.8730    -1.3600 h1         1 BHL       0.070700
     10 H12         -1.4620     0.8990    -1.3630 h1         1 BHL       0.070700
     11 H21          0.8010     0.8880    -0.2880 hc         1 BHL       0.055700
     12 H22          0.8040    -0.8700    -0.2930 hc         1 BHL       0.055700
     13 H31         -1.2330    -0.8760     1.1670 hc         1 BHL       0.041700
     14 H32         -1.2360     0.8770     1.1730 hc         1 BHL       0.041700
     15 H41          1.0280     0.8780     2.2360 hc         1 BHL       0.039700
     16 H42          1.0320    -0.8740     2.2290 hc         1 BHL       0.039700
     17 H51         -0.9970    -0.8850     3.7000 hc         1 BHL       0.052700
     18 H52         -1.0000     0.8730     3.7060 hc         1 BHL       0.052700
     19 H61          1.2730     0.8730     4.7300 h1         1 BHL       0.015700
     20 H62          1.2710    -0.8890     4.7300 h1         1 BHL       0.015700
     21 HO7          0.5150    -0.0120     6.7420 ho         1 BHL       0.404000
@<TRIPOS>BOND
     1     1     2 1   
     2     2     3 1   
     3     2     9 1   
     4     2    10 1   
     5     3     4 1   
     6     3    11 1   
     7     3    12 1   
     8     4     5 1   
     9     4    13 1   
    10     4    14 1   
    11     5     6 1   
    12     5    15 1   
    13     5    16 1   
    14     6     7 1   
    15     6    17 1   
    16     6    18 1   
    17     7     8 1   
    18     7    19 1   
    19     7    20 1   
    20     8    21 1   
@<TRIPOS>SUBSTRUCTURE
     1 BHL         1 TEMP              0 ****  ****    0 ROOT
