@<TRIPOS>MOLECULE
BHM
   31    31     1     0     0
SMALL
bcc


@<TRIPOS>ATOM
      1 BRAI         5.6970     0.4220     0.4080 br         1 BHM      -0.147400
      2 C13          3.9720    -0.4920     0.5350 c3         1 BHM      -0.038000
      3 C11          2.9580     0.0500    -0.4740 c3         1 BHM       0.094800
      4 O11          2.7530     1.4300    -0.3270 oh         1 BHM      -0.584800
      5 C12          3.3700    -0.2000    -1.9220 c3         1 BHM      -0.089100
      6 C10          1.6540    -0.7500    -0.2460 c          1 BHM       0.637100
      7 O10          1.6710    -1.9550    -0.0960 o          1 BHM      -0.561100
      8 N09          0.5320     0.0120    -0.2820 ns         1 BHM      -0.467100
      9 C06         -0.7900    -0.3810    -0.1640 ca         1 BHM       0.111600
     10 C05         -1.7460     0.6400    -0.2090 ca         1 BHM      -0.157000
     11 C01         -1.2140    -1.6970     0.0050 ca         1 BHM      -0.142000
     12 C02         -2.5660    -1.9640     0.1140 ca         1 BHM      -0.048000
     13 C03         -3.5030    -0.9500     0.0350 ca         1 BHM      -0.162200
     14 N08         -4.8990    -1.3470     0.0810 no         1 BHM       0.315200
     15 O02         -5.1950    -2.2570     0.8180 o          1 BHM      -0.191000
     16 O01         -5.6750    -0.7710    -0.6420 o          1 BHM      -0.191000
     17 C04         -3.0990     0.3800    -0.1210 ca         1 BHM      -0.106300
     18 C07         -4.0460     1.5560    -0.1350 c3         1 BHM       0.731200
     19 F01         -3.3990     2.6950     0.1320 f          1 BHM      -0.221633
     20 F02         -4.6330     1.7230    -1.3210 f          1 BHM      -0.221633
     21 F03         -5.0000     1.4360     0.7910 f          1 BHM      -0.221633
     22 H131         3.6250    -0.3480     1.5600 h1         1 BHM       0.092700
     23 H132         4.1590    -1.5510     0.3760 h1         1 BHM       0.092700
     24 H11          2.6980     1.6610     0.6080 ho         1 BHM       0.419000
     25 H121         4.2610     0.3710    -2.1760 hc         1 BHM       0.064033
     26 H122         3.5790    -1.2560    -2.0860 hc         1 BHM       0.064033
     27 H123         2.5740     0.1010    -2.6050 hc         1 BHM       0.064033
     28 H09          0.6910     1.0020    -0.4170 hn         1 BHM       0.344500
     29 H05         -1.4000     1.6600    -0.3090 ha         1 BHM       0.159000
     30 H01         -0.5150    -2.5140     0.0510 ha         1 BHM       0.183000
     31 H02         -2.8860    -2.9890     0.2380 ha         1 BHM       0.173000
@<TRIPOS>BOND
     1     1     2 1   
     2     2     3 1   
     3     2    22 1   
     4     2    23 1   
     5     3     4 1   
     6     3     5 1   
     7     3     6 1   
     8     4    24 1   
     9     5    25 1   
    10     5    26 1   
    11     5    27 1   
    12     6     7 2   
    13     6     8 1   
    14     8     9 1   
    15     8    28 1   
    16     9    10 ar  
    17     9    11 ar  
    18    10    17 ar  
    19    10    29 1   
    20    11    12 ar  
    21    11    30 1   
    22    12    13 ar  
    23    12    31 1   
    24    13    14 1   
    25    13    17 ar  
    26    14    15 1   
    27    14    16 1   
    28    17    18 1   
    29    18    19 1   
    30    18    20 1   
    31    18    21 1   
@<TRIPOS>SUBSTRUCTURE
     1 BHM         1 TEMP              0 ****  ****    0 ROOT
