@<TRIPOS>MOLECULE
BHM
   31    31     1     0     0
SMALL
No Charge or Current Charge


@<TRIPOS>ATOM
      1 BrAI         5.5640     0.8080     0.7760 br         1 BHM      -0.230000
      2 C13          3.9170    -0.3270     0.6970 c3         1 BHM       0.044600
      3 C11          2.9920     0.0060    -0.5060 c3         1 BHM       0.118000
      4 O11          2.7320     1.4320    -0.4920 oh         1 BHM      -0.647000
      5 C12          3.6730    -0.3220    -1.8590 c3         1 BHM      -0.089100
      6 C10          1.6720    -0.8350    -0.3710 c          1 BHM       0.570100
      7 O10          1.6900    -2.0600    -0.3000 o          1 BHM      -0.561100
      8 N09          0.5080    -0.0770    -0.3200 ns         1 BHM      -0.141000
      9 C06         -0.8660    -0.4250    -0.2050 ca         1 BHM       0.019000
     10 C05         -1.7970     0.6270    -0.1370 ca         1 BHM      -0.139000
     11 C01         -1.3330    -1.7520    -0.1580 ca         1 BHM      -0.124000
     12 C02         -2.7070    -2.0150    -0.0530 ca         1 BHM      -0.030000
     13 C03         -3.6440    -0.9610     0.0070 ca         1 BHM      -0.162200
     14 N08         -5.0910    -1.3260     0.0910 no         1 BHM       0.695200
     15 O02         -5.4080    -2.2300     0.8750 o          1 BHM      -0.381000
     16 O01         -5.8570    -0.8550    -0.7580 o          1 BHM      -0.381000
     17 C04         -3.1890     0.3910    -0.0180 ca         1 BHM      -0.106300
     18 C07         -4.1520     1.5970     0.0920 c3         1 BHM       0.367300
     19 F01         -3.5170     2.7460     0.4190 f          1 BHM      -0.100333
     20 F02         -4.7910     1.8340    -1.0760 f          1 BHM      -0.100333
     21 F03         -5.1000     1.4160     1.0400 f          1 BHM      -0.100333
     22 H131         3.3870    -0.1690     1.6450 h1         1 BHM       0.092700
     23 H132         4.2550    -1.3710     0.6510 h1         1 BHM       0.092700
     24 H11          3.6020     1.8860    -0.4150 ho         1 BHM       0.458000
     25 H121         4.5820     0.2720    -2.0090 hc         1 BHM       0.064033
     26 H122         3.9510    -1.3820    -1.9100 hc         1 BHM       0.064033
     27 H123         2.9930    -0.1110    -2.6940 hc         1 BHM       0.064033
     28 H09          0.6800     0.9190    -0.3800 hn         1 BHM       0.178000
     29 H05         -1.4210     1.6480    -0.1730 ha         1 BHM       0.141000
     30 H01         -0.6530    -2.5970    -0.2090 ha         1 BHM       0.165000
     31 H02         -3.0450    -3.0500    -0.0300 ha         1 BHM       0.155000
@<TRIPOS>BOND
     1     1     2 1   
     2     2     3 1   
     3     2    22 1   
     4     2    23 1   
     5     3     4 1   
     6     3     5 1   
     7     3     6 1   
     8     4    24 1   
     9     5    25 1   
    10     5    26 1   
    11     5    27 1   
    12     6     7 2   
    13     6     8 1   
    14     8     9 1   
    15     8    28 1   
    16     9    10 ar  
    17     9    11 ar  
    18    10    17 ar  
    19    10    29 1   
    20    11    12 ar  
    21    11    30 1   
    22    12    13 ar  
    23    12    31 1   
    24    13    14 1   
    25    13    17 ar  
    26    14    15 1   
    27    14    16 1   
    28    17    18 1   
    29    18    19 1   
    30    18    20 1   
    31    18    21 1   
@<TRIPOS>SUBSTRUCTURE
     1 BHM         1 TEMP              0 ****  ****    0 ROOT
