@<TRIPOS>MOLECULE
BHN
   50    51     1     0     0
SMALL
bcc


@<TRIPOS>ATOM
      1 C1          -3.3440    -0.7260    -0.5530 ca         1 BHN      -0.124800
      2 C2          -2.9540    -1.7810     0.2620 ca         1 BHN      -0.080500
      3 C3          -3.7450    -2.9120     0.4300 ca         1 BHN      -0.198500
      4 C4          -4.9610    -2.9950    -0.2320 ca         1 BHN      -0.113000
      5 C5          -5.3720    -1.9580    -1.0580 ca         1 BHN      -0.234000
      6 C6          -4.5690    -0.8340    -1.2220 ca         1 BHN       0.180600
      7 O6          -4.9310     0.1870    -2.0320 oh         1 BHN      -0.521600
      8 C7          -2.4690     0.4970    -0.7380 c3         1 BHN       0.238600
      9 N8          -1.4720     0.6190     0.2980 n3         1 BHN      -0.749600
     10 C9          -0.1620     1.0640    -0.1290 c3         1 BHN       0.187300
     11 C10          0.9190     0.6470     0.8630 c3         1 BHN       0.187300
     12 N11          2.2590     0.8380     0.3420 n3         1 BHN      -0.749600
     13 C12          3.2210    -0.0090     1.0240 c3         1 BHN       0.238600
     14 C13          3.0870    -1.4420     0.5900 ca         1 BHN      -0.124800
     15 C14          2.7840    -2.4390     1.5100 ca         1 BHN      -0.080500
     16 C15          2.6420    -3.7690     1.1380 ca         1 BHN      -0.198500
     17 C16          2.7990    -4.1070    -0.1990 ca         1 BHN      -0.113000
     18 C17          3.0950    -3.1300    -1.1380 ca         1 BHN      -0.234000
     19 C18          3.2480    -1.7920    -0.7630 ca         1 BHN       0.180600
     20 O18          3.5590    -0.9230    -1.7260 oh         1 BHN      -0.521600
     21 C19         -1.9800     1.2150     1.5130 c3         1 BHN       0.035800
     22 C20         -2.3090     2.7270     1.5210 c          1 BHN       0.919100
     23 O20         -2.1950     3.3750     0.4640 o          1 BHN      -0.843050
     24 C21          2.6800     2.2160     0.2940 c3         1 BHN       0.035800
     25 O21         -2.6800     3.1710     2.6290 o          1 BHN      -0.843050
     26 C22          3.8230     2.4890    -0.6940 c          1 BHN       0.919100
     27 O22          4.1660     1.5650    -1.4760 o          1 BHN      -0.843050
     28 O23          4.3140     3.6270    -0.6650 o          1 BHN      -0.843050
     29 H2          -2.0060    -1.6950     0.7780 ha         1 BHN       0.138500
     30 H3          -3.4150    -3.7160     1.0750 ha         1 BHN       0.110000
     31 H4          -5.5960    -3.8640    -0.1120 ha         1 BHN       0.100000
     32 H5          -6.3220    -2.0250    -1.5770 ha         1 BHN       0.113500
     33 HO6         -5.8010     0.0180    -2.4110 ho         1 BHN       0.469000
     34 H7          -1.9630     0.4140    -1.7060 h1         1 BHN       0.043700
     35 H7A         -3.0940     1.3930    -0.8150 h1         1 BHN       0.043700
     36 H9           0.0780     0.5680    -1.0730 h1         1 BHN       0.035200
     37 H9A         -0.1270     2.1450    -0.3200 h1         1 BHN       0.035200
     38 H10          0.7920     1.1580     1.8320 h1         1 BHN       0.035200
     39 H10A         0.7760    -0.4190     1.0560 h1         1 BHN       0.035200
     40 H12          4.2290     0.3470     0.7960 h1         1 BHN       0.043700
     41 H12A         3.1250     0.0550     2.1210 h1         1 BHN       0.043700
     42 H14          2.6540    -2.1580     2.5490 ha         1 BHN       0.138500
     43 H15          2.4090    -4.5240     1.8770 ha         1 BHN       0.110000
     44 H16          2.6890    -5.1360    -0.5190 ha         1 BHN       0.100000
     45 H17          3.2200    -3.3980    -2.1810 ha         1 BHN       0.113500
     46 HO18         3.6240     0.0400    -1.4500 ho         1 BHN       0.469000
     47 H19         -2.8900     0.6780     1.8010 h1         1 BHN       0.029700
     48 H19A        -1.2800     1.0230     2.3310 h1         1 BHN       0.029700
     49 H21          1.8380     2.8340    -0.0300 h1         1 BHN       0.029700
     50 H21A         2.9670     2.6110     1.2840 h1         1 BHN       0.029700
@<TRIPOS>BOND
     1     1     2 ar  
     2     1     6 ar  
     3     1     8 1   
     4     2     3 ar  
     5     2    29 1   
     6     3     4 ar  
     7     3    30 1   
     8     4     5 ar  
     9     4    31 1   
    10     5     6 ar  
    11     5    32 1   
    12     6     7 1   
    13     7    33 1   
    14     8     9 1   
    15     8    34 1   
    16     8    35 1   
    17     9    10 1   
    18     9    21 1   
    19    10    11 1   
    20    10    36 1   
    21    10    37 1   
    22    11    12 1   
    23    11    38 1   
    24    11    39 1   
    25    12    13 1   
    26    12    24 1   
    27    13    14 1   
    28    13    40 1   
    29    13    41 1   
    30    14    15 ar  
    31    14    19 ar  
    32    15    16 ar  
    33    15    42 1   
    34    16    17 ar  
    35    16    43 1   
    36    17    18 ar  
    37    17    44 1   
    38    18    19 ar  
    39    18    45 1   
    40    19    20 1   
    41    20    46 1   
    42    21    22 1   
    43    21    47 1   
    44    21    48 1   
    45    22    23 1   
    46    22    25 1   
    47    24    26 1   
    48    24    49 1   
    49    24    50 1   
    50    26    27 1   
    51    26    28 1   
@<TRIPOS>SUBSTRUCTURE
     1 BHN         1 TEMP              0 ****  ****    0 ROOT
