@<TRIPOS>MOLECULE
BHN
   50    51     1     0     0
SMALL
No Charge or Current Charge


@<TRIPOS>ATOM
      1 C1          -3.7790    -0.6410    -0.8050 ca         1 BHN      -0.124800
      2 C2          -3.6430    -1.9610    -0.3180 ca         1 BHN      -0.062500
      3 C3          -4.7690    -2.7900    -0.1780 ca         1 BHN      -0.180500
      4 C4          -6.0410    -2.3180    -0.5310 ca         1 BHN      -0.095000
      5 C5          -6.1850    -1.0150    -1.0330 ca         1 BHN      -0.216000
      6 C6          -5.0630    -0.1800    -1.1750 ca         1 BHN       0.180600
      7 O6          -5.2380     1.0700    -1.6920 oh         1 BHN      -0.560600
      8 C7          -2.5410     0.2510    -0.9680 c3         1 BHN       0.238600
      9 N8          -1.4930     0.0610     0.0720 n3         1 BHN      -0.749600
     10 C9          -0.1950     0.6880    -0.3200 c3         1 BHN       0.187300
     11 C10          1.0250     0.3430     0.5900 c3         1 BHN       0.187300
     12 N11          2.3670     0.7570     0.0680 n3         1 BHN      -0.749600
     13 C12          3.4770     0.1970     0.8920 c3         1 BHN       0.238600
     14 C13          3.6200    -1.3230     0.7800 ca         1 BHN      -0.124800
     15 C14          3.9940    -2.0780     1.9100 ca         1 BHN      -0.062500
     16 C15          4.1680    -3.4700     1.8070 ca         1 BHN      -0.180500
     17 C16          3.9750    -4.1190     0.5760 ca         1 BHN      -0.095000
     18 C17          3.6040    -3.3720    -0.5540 ca         1 BHN      -0.216000
     19 C18          3.4270    -1.9850    -0.4510 ca         1 BHN       0.180600
     20 O18          3.0420    -1.2700    -1.5390 oh         1 BHN      -0.560600
     21 C19         -1.9590     0.4430     1.4580 c3         1 BHN       0.035800
     22 C20         -2.2750     1.9510     1.7780 c          1 BHN       0.708500
     23 O20         -3.4310     2.3440     1.6740 o          1 BHN      -0.737750
     24 C21          2.4880     2.2500    -0.1140 c3         1 BHN       0.035800
     25 O21         -1.3620     2.6730     2.1570 o          1 BHN      -0.737750
     26 C22          3.8100     2.8380    -0.7310 c          1 BHN       0.708500
     27 O22          3.9970     2.7200    -1.9350 o          1 BHN      -0.737750
     28 O23          4.6090     3.3890     0.0170 o          1 BHN      -0.737750
     29 H2          -2.6620    -2.3440    -0.0450 ha         1 BHN       0.120500
     30 H3          -4.6520    -3.8020     0.2040 ha         1 BHN       0.092000
     31 H4          -6.9110    -2.9620    -0.4240 ha         1 BHN       0.082000
     32 H5          -7.1740    -0.6610    -1.3150 ha         1 BHN       0.095500
     33 HO6         -6.1960     1.1950    -1.8680 ho         1 BHN       0.508000
     34 H7          -2.1200     0.0310    -1.9590 h1         1 BHN       0.043700
     35 H7A         -2.8430     1.3070    -0.9880 h1         1 BHN       0.043700
     36 H9           0.0640     0.3620    -1.3360 h1         1 BHN       0.035200
     37 H9A         -0.3110     1.7790    -0.3580 h1         1 BHN       0.035200
     38 H10          0.8640     0.7950     1.5780 h1         1 BHN       0.035200
     39 H10A         1.0130    -0.7460     0.7370 h1         1 BHN       0.035200
     40 H12          4.4360     0.6270     0.5760 h1         1 BHN       0.043700
     41 H12A         3.3380     0.4760     1.9460 h1         1 BHN       0.043700
     42 H14          4.1560    -1.5860     2.8680 ha         1 BHN       0.120500
     43 H15          4.4570    -4.0460     2.6830 ha         1 BHN       0.092000
     44 H16          4.1120    -5.1950     0.5000 ha         1 BHN       0.082000
     45 H17          3.4490    -3.8710    -1.5070 ha         1 BHN       0.095500
     46 HO18         2.7670    -0.3880    -1.1560 ho         1 BHN       0.508000
     47 H19         -2.8670    -0.1240     1.7030 h1         1 BHN       0.029700
     48 H19A        -1.2120     0.1170     2.1940 h1         1 BHN       0.029700
     49 H21          1.6800     2.6070    -0.7650 h1         1 BHN       0.029700
     50 H21A         2.3410     2.7430     0.8560 h1         1 BHN       0.029700
@<TRIPOS>BOND
     1     1     2 ar  
     2     1     6 ar  
     3     1     8 1   
     4     2     3 ar  
     5     2    29 1   
     6     3     4 ar  
     7     3    30 1   
     8     4     5 ar  
     9     4    31 1   
    10     5     6 ar  
    11     5    32 1   
    12     6     7 1   
    13     7    33 1   
    14     8     9 1   
    15     8    34 1   
    16     8    35 1   
    17     9    10 1   
    18     9    21 1   
    19    10    11 1   
    20    10    36 1   
    21    10    37 1   
    22    11    12 1   
    23    11    38 1   
    24    11    39 1   
    25    12    13 1   
    26    12    24 1   
    27    13    14 1   
    28    13    40 1   
    29    13    41 1   
    30    14    15 ar  
    31    14    19 ar  
    32    15    16 ar  
    33    15    42 1   
    34    16    17 ar  
    35    16    43 1   
    36    17    18 ar  
    37    17    44 1   
    38    18    19 ar  
    39    18    45 1   
    40    19    20 1   
    41    20    46 1   
    42    21    22 1   
    43    21    47 1   
    44    21    48 1   
    45    22    23 1   
    46    22    25 1   
    47    24    26 1   
    48    24    49 1   
    49    24    50 1   
    50    26    27 1   
    51    26    28 1   
@<TRIPOS>SUBSTRUCTURE
     1 BHN         1 TEMP              0 ****  ****    0 ROOT
