@<TRIPOS>MOLECULE
BHO
   17    17     1     0     0
SMALL
abcg2


@<TRIPOS>ATOM
      1 C1          -0.0290     0.1600    -0.2330 ca         1 BHO      -0.154600
      2 C2          -1.1410    -0.0660    -1.0410 ca         1 BHO      -0.072000
      3 C3          -0.9930    -0.1990    -2.4120 ca         1 BHO      -0.118000
      4 C4           0.2650    -0.0850    -2.9920 ca         1 BHO      -0.087000
      5 C5           1.3740     0.1600    -2.1940 ca         1 BHO      -0.118000
      6 C6           1.2290     0.2810    -0.8190 ca         1 BHO      -0.072000
      7 C           -0.2490     0.3140     1.2360 c          1 BHO       0.619700
      8 O1          -1.2750     0.7870     1.6960 o          1 BHO      -0.571100
      9 N            0.7600    -0.1420     1.9980 ns         1 BHO      -0.392400
     10 O2           0.7620     0.0820     3.3380 oh         1 BHO      -0.415100
     11 H2          -2.1240    -0.1480    -0.5950 ha         1 BHO       0.123000
     12 H3          -1.8600    -0.3870    -3.0310 ha         1 BHO       0.118500
     13 H4           0.3790    -0.1810    -4.0630 ha         1 BHO       0.117000
     14 H5           2.3540     0.2660    -2.6400 ha         1 BHO       0.118500
     15 H6           2.1040     0.4950    -0.2180 ha         1 BHO       0.123000
     16 HN           1.6040    -0.5540     1.6280 hn         1 BHO       0.340500
     17 HO2          0.3540    -0.6940     3.7460 ho         1 BHO       0.440000
@<TRIPOS>BOND
     1     1     2 ar  
     2     1     6 ar  
     3     1     7 1   
     4     2     3 ar  
     5     2    11 1   
     6     3     4 ar  
     7     3    12 1   
     8     4     5 ar  
     9     4    13 1   
    10     5     6 ar  
    11     5    14 1   
    12     6    15 1   
    13     7     8 2   
    14     7     9 1   
    15     9    10 1   
    16     9    16 1   
    17    10    17 1   
@<TRIPOS>SUBSTRUCTURE
     1 BHO         1 TEMP              0 ****  ****    0 ROOT
