@<TRIPOS>MOLECULE
BHO
   17    17     1     0     0
SMALL
No Charge or Current Charge


@<TRIPOS>ATOM
      1 C1          -0.1240     0.0140    -0.2450 ca         1 BHO      -0.154600
      2 C2          -1.2160     0.0790    -1.1440 ca         1 BHO      -0.072000
      3 C3          -1.0070     0.0680    -2.5330 ca         1 BHO      -0.118000
      4 C4           0.2950    -0.0090    -3.0500 ca         1 BHO      -0.087000
      5 C5           1.3890    -0.0770    -2.1730 ca         1 BHO      -0.118000
      6 C6           1.1860    -0.0670    -0.7820 ca         1 BHO      -0.072000
      7 C           -0.3880     0.0270     1.2500 c          1 BHO       0.619700
      8 O1          -1.5250     0.0260     1.7080 o          1 BHO      -0.571100
      9 N            0.7270     0.0260     2.0830 ns         1 BHO      -0.392400
     10 O2           0.6010     0.2880     3.5030 oh         1 BHO      -0.415100
     11 H2          -2.2350     0.1400    -0.7670 ha         1 BHO       0.123000
     12 H3          -1.8570     0.1200    -3.2100 ha         1 BHO       0.118500
     13 H4           0.4570    -0.0170    -4.1260 ha         1 BHO       0.117000
     14 H5           2.3990    -0.1400    -2.5730 ha         1 BHO       0.118500
     15 H6           2.0590    -0.1280    -0.1370 ha         1 BHO       0.123000
     16 HN           1.6470     0.1890     1.6800 hn         1 BHO       0.340500
     17 HO2          1.1070    -0.4490     3.9210 ho         1 BHO       0.440000
@<TRIPOS>BOND
     1     1     2 ar  
     2     1     6 ar  
     3     1     7 1   
     4     2     3 ar  
     5     2    11 1   
     6     3     4 ar  
     7     3    12 1   
     8     4     5 ar  
     9     4    13 1   
    10     5     6 ar  
    11     5    14 1   
    12     6    15 1   
    13     7     8 2   
    14     7     9 1   
    15     9    10 1   
    16     9    16 1   
    17    10    17 1   
@<TRIPOS>SUBSTRUCTURE
     1 BHO         1 TEMP              0 ****  ****    0 ROOT
