@<TRIPOS>MOLECULE
BHP
   72    74     1     0     0
SMALL
No Charge or Current Charge


@<TRIPOS>ATOM
      1 C9           0.2960     0.6620     4.5800 c3         1 BHP      -0.076400
      2 C8          -0.6100     0.1030     5.6990 c3         1 BHP      -0.072400
      3 C7          -0.2880     0.6890     7.0910 c3         1 BHP      -0.034100
      4 C6          -1.1950     0.1210     8.1750 ca         1 BHP      -0.071300
      5 C1          -0.8250    -1.0460     8.8720 ca         1 BHP      -0.108000
      6 C5          -2.4150     0.7540     8.4840 ca         1 BHP      -0.108000
      7 C2          -1.6650    -1.5720     9.8690 ca         1 BHP      -0.111500
      8 C4          -3.2540     0.2280     9.4810 ca         1 BHP      -0.111500
      9 C3          -2.8790    -0.9350    10.1740 ca         1 BHP      -0.118000
     10 C13          1.4760     0.6130    -0.4020 c          1 BHP       0.605100
     11 O1           1.3470     1.7470    -0.8430 o          1 BHP      -0.617100
     12 C12          0.5510     0.0420     0.6790 c3         1 BHP      -0.157400
     13 C11          0.8770     0.6320     2.0710 c3         1 BHP      -0.068400
     14 C10         -0.0290     0.0730     3.1900 c3         1 BHP      -0.075400
     15 N            2.4410    -0.2600    -0.8510 ns         1 BHP      -0.485900
     16 C14          3.4160     0.0280    -1.9100 c3         1 BHP       0.100700
     17 C15          3.1120    -0.8160    -3.1710 c3         1 BHP      -0.051100
     18 C16          1.6850    -0.6320    -3.6790 ca         1 BHP      -0.092300
     19 C17          1.3320     0.5310    -4.3890 ca         1 BHP      -0.069500
     20 C18          0.0150     0.7080    -4.8450 ca         1 BHP      -0.169000
     21 C21          0.7070    -1.6140    -3.4300 ca         1 BHP      -0.069500
     22 C20         -0.6120    -1.4360    -3.8840 ca         1 BHP      -0.169000
     23 C19         -0.9620    -0.2680    -4.5960 ca         1 BHP       0.127100
     24 O2          -2.2390    -0.0370    -5.0660 os         1 BHP      -0.347100
     25 C29          4.8660    -0.1710    -1.4020 c3         1 BHP      -0.062400
     26 C30          5.2480     0.7250    -0.1930 c3         1 BHP      -0.207400
     27 C31          6.7310     0.5310     0.1630 c          1 BHP       0.717000
     28 O3           7.0240    -0.3540     0.9530 o          1 BHP      -0.741500
     29 O4T          7.5560     1.2350    -0.3990 o          1 BHP      -0.741500
     30 C22         -3.3110    -0.9720    -4.8590 c3         1 BHP       0.211900
     31 C23         -4.5750    -0.4100    -5.4970 ca         1 BHP      -0.087300
     32 C24         -4.8850    -0.7060    -6.8400 ca         1 BHP      -0.085500
     33 C28         -5.4440     0.4110    -4.7510 ca         1 BHP      -0.085500
     34 C25         -6.0520    -0.1880    -7.4290 ca         1 BHP      -0.118000
     35 C27         -6.6110     0.9280    -5.3410 ca         1 BHP      -0.118000
     36 C26         -6.9160     0.6290    -6.6790 ca         1 BHP      -0.106000
     37 H91          1.3450     0.4500     4.8260 hc         1 BHP       0.041700
     38 H92          0.1910     1.7540     4.5430 hc         1 BHP       0.041700
     39 H81         -1.6580     0.3150     5.4550 hc         1 BHP       0.039700
     40 H82         -0.5050    -0.9890     5.7380 hc         1 BHP       0.039700
     41 H71          0.7620     0.4840     7.3340 hc         1 BHP       0.047700
     42 H72         -0.3850     1.7810     7.0530 hc         1 BHP       0.047700
     43 H1           0.1120    -1.5460     8.6390 ha         1 BHP       0.112000
     44 H5          -2.7140     1.6540     7.9490 ha         1 BHP       0.112000
     45 H2          -1.3740    -2.4730    10.4040 ha         1 BHP       0.107500
     46 H4          -4.1950     0.7210     9.7160 ha         1 BHP       0.107500
     47 H3          -3.5290    -1.3420    10.9460 ha         1 BHP       0.107000
     48 H121        -0.4850     0.2970     0.4270 hc         1 BHP       0.045700
     49 H122         0.6620    -1.0480     0.7310 hc         1 BHP       0.045700
     50 H111         1.9260     0.4200     2.3140 hc         1 BHP       0.058200
     51 H112         0.7730     1.7240     2.0340 hc         1 BHP       0.058200
     52 H101        -1.0770     0.2860     2.9450 hc         1 BHP       0.032200
     53 H102         0.0770    -1.0180     3.2280 hc         1 BHP       0.032200
     54 H            2.4600    -1.1750    -0.4200 hn         1 BHP       0.300500
     55 H14          3.3170     1.0840    -2.1970 h1         1 BHP       0.080700
     56 H151         3.8220    -0.5430    -3.9620 hc         1 BHP       0.049200
     57 H152         3.3010    -1.8740    -2.9480 hc         1 BHP       0.049200
     58 H17          2.0780     1.2980    -4.5840 ha         1 BHP       0.110000
     59 H18         -0.2510     1.6090    -5.3920 ha         1 BHP       0.113000
     60 H21          0.9660    -2.5150    -2.8780 ha         1 BHP       0.110000
     61 H20         -1.3430    -2.2110    -3.6730 ha         1 BHP       0.113000
     62 H291         5.5570     0.0410    -2.2280 hc         1 BHP       0.043700
     63 H292         5.0150    -1.2240    -1.1320 hc         1 BHP       0.043700
     64 H301         4.6140     0.4040     0.6430 hc         1 BHP       0.023700
     65 H302         5.0650     1.7580    -0.5140 hc         1 BHP       0.023700
     66 H221        -3.0720    -1.9420    -5.3140 h1         1 BHP       0.038700
     67 H222        -3.4840    -1.1310    -3.7860 h1         1 BHP       0.038700
     68 H24         -4.2200    -1.3350    -7.4280 ha         1 BHP       0.117000
     69 H28         -5.2130     0.6490    -3.7150 ha         1 BHP       0.117000
     70 H25         -6.2860    -0.4190    -8.4650 ha         1 BHP       0.110500
     71 H27         -7.2780     1.5620    -4.7600 ha         1 BHP       0.110500
     72 H26         -7.8180     1.0290    -7.1350 ha         1 BHP       0.107000
@<TRIPOS>BOND
     1     1     2 1   
     2     1    14 1   
     3     1    37 1   
     4     1    38 1   
     5     2     3 1   
     6     2    39 1   
     7     2    40 1   
     8     3     4 1   
     9     3    41 1   
    10     3    42 1   
    11     4     5 ar  
    12     4     6 ar  
    13     5     7 ar  
    14     5    43 1   
    15     6     8 ar  
    16     6    44 1   
    17     7     9 ar  
    18     7    45 1   
    19     8     9 ar  
    20     8    46 1   
    21     9    47 1   
    22    10    11 2   
    23    10    12 1   
    24    10    15 1   
    25    12    13 1   
    26    12    48 1   
    27    12    49 1   
    28    13    14 1   
    29    13    50 1   
    30    13    51 1   
    31    14    52 1   
    32    14    53 1   
    33    15    16 1   
    34    15    54 1   
    35    16    17 1   
    36    16    25 1   
    37    16    55 1   
    38    17    18 1   
    39    17    56 1   
    40    17    57 1   
    41    18    19 ar  
    42    18    21 ar  
    43    19    20 ar  
    44    19    58 1   
    45    20    23 ar  
    46    20    59 1   
    47    21    22 ar  
    48    21    60 1   
    49    22    23 ar  
    50    22    61 1   
    51    23    24 1   
    52    24    30 1   
    53    25    26 1   
    54    25    62 1   
    55    25    63 1   
    56    26    27 1   
    57    26    64 1   
    58    26    65 1   
    59    27    28 1   
    60    27    29 1   
    61    30    31 1   
    62    30    66 1   
    63    30    67 1   
    64    31    32 ar  
    65    31    33 ar  
    66    32    34 ar  
    67    32    68 1   
    68    33    35 ar  
    69    33    69 1   
    70    34    36 ar  
    71    34    70 1   
    72    35    36 ar  
    73    35    71 1   
    74    36    72 1   
@<TRIPOS>SUBSTRUCTURE
     1 BHP         1 TEMP              0 ****  ****    0 ROOT
