@<TRIPOS>MOLECULE
BHP
   72    74     1     0     0
SMALL
bcc


@<TRIPOS>ATOM
      1 C9          -0.0890     0.6760     4.1800 c3         1 BHP      -0.076400
      2 C8          -0.9100    -0.0090     5.2640 c3         1 BHP      -0.072400
      3 C7          -1.1500     0.8920     6.4780 c3         1 BHP      -0.034100
      4 C6          -1.9790     0.2160     7.5340 ca         1 BHP      -0.071300
      5 C1          -1.3810    -0.4640     8.5930 ca         1 BHP      -0.126000
      6 C5          -3.3710     0.2190     7.4520 ca         1 BHP      -0.126000
      7 C2          -2.1510    -1.1220     9.5440 ca         1 BHP      -0.129500
      8 C4          -4.1440    -0.4370     8.4000 ca         1 BHP      -0.129500
      9 C3          -3.5360    -1.1110     9.4510 ca         1 BHP      -0.136000
     10 C13          1.9570     0.2720    -0.4410 c          1 BHP       0.672100
     11 O1           1.6700     1.4060    -0.8010 o          1 BHP      -0.617100
     12 C12          1.1980    -0.4200     0.6720 c3         1 BHP      -0.157400
     13 C11          0.9620     0.4830     1.8780 c3         1 BHP      -0.068400
     14 C10          0.1500    -0.2100     2.9650 c3         1 BHP      -0.075400
     15 N            2.9480    -0.4520    -0.9860 ns         1 BHP      -0.552900
     16 C14          3.7420    -0.0620    -2.1320 c3         1 BHP       0.100700
     17 C15          3.3300    -0.8840    -3.3650 c3         1 BHP      -0.051100
     18 C16          1.8810    -0.7030    -3.7090 ca         1 BHP      -0.092300
     19 C17          1.4670     0.3460    -4.5290 ca         1 BHP      -0.087500
     20 C18          0.1300     0.5730    -4.7970 ca         1 BHP      -0.187000
     21 C21          0.8970    -1.5220    -3.1720 ca         1 BHP      -0.087500
     22 C20         -0.4550    -1.3100    -3.4240 ca         1 BHP      -0.187000
     23 C19         -0.8460    -0.2530    -4.2390 ca         1 BHP       0.127100
     24 O2          -2.1280     0.0440    -4.5490 os         1 BHP      -0.323900
     25 C29          5.2330    -0.2030    -1.8350 c3         1 BHP      -0.062400
     26 C30          5.6990     0.6900    -0.6980 c3         1 BHP      -0.207400
     27 C31          7.2120     0.6860    -0.4200 c          1 BHP       0.927600
     28 O3           7.9320    -0.0610    -1.1110 o          1 BHP      -0.846800
     29 O4T          7.5980     1.4460     0.4940 o          1 BHP      -0.846800
     30 C22         -3.1630    -0.7110    -3.9370 c3         1 BHP       0.188700
     31 C23         -4.4700    -0.1420    -4.3990 ca         1 BHP      -0.087300
     32 C24         -5.2320    -0.8000    -5.3580 ca         1 BHP      -0.103500
     33 C28         -4.9250     1.0720    -3.8890 ca         1 BHP      -0.103500
     34 C25         -6.4340    -0.2600    -5.7980 ca         1 BHP      -0.136000
     35 C27         -6.1230     1.6160    -4.3290 ca         1 BHP      -0.136000
     36 C26         -6.8800     0.9500    -5.2860 ca         1 BHP      -0.124000
     37 H91          0.8750     0.9890     4.5970 hc         1 BHP       0.041700
     38 H92         -0.5970     1.5950     3.8680 hc         1 BHP       0.041700
     39 H81         -1.8740    -0.3220     4.8500 hc         1 BHP       0.039700
     40 H82         -0.4040    -0.9240     5.5870 hc         1 BHP       0.039700
     41 H71         -0.1870     1.1940     6.8960 hc         1 BHP       0.047700
     42 H72         -1.6500     1.8080     6.1490 hc         1 BHP       0.047700
     43 H1          -0.3000    -0.4760     8.6770 ha         1 BHP       0.130000
     44 H5          -3.8550     0.7440     6.6360 ha         1 BHP       0.130000
     45 H2          -1.6660    -1.6400    10.3630 ha         1 BHP       0.125500
     46 H4          -5.2240    -0.4180     8.3190 ha         1 BHP       0.125500
     47 H3          -4.1370    -1.6200    10.1940 ha         1 BHP       0.125000
     48 H121         0.2330    -0.7340     0.2600 hc         1 BHP       0.045700
     49 H122         1.7080    -1.3350     0.9850 hc         1 BHP       0.045700
     50 H111         1.9240     0.8020     2.2910 hc         1 BHP       0.058200
     51 H112         0.4440     1.3910     1.5610 hc         1 BHP       0.058200
     52 H101        -0.8140    -0.5280     2.5500 hc         1 BHP       0.032200
     53 H102         0.6630    -1.1270     3.2760 hc         1 BHP       0.032200
     54 H            3.1090    -1.3790    -0.6230 hn         1 BHP       0.300500
     55 H14          3.5210     0.9880    -2.3290 h1         1 BHP       0.080700
     56 H151         3.9580    -0.5800    -4.2060 hc         1 BHP       0.049200
     57 H152         3.5470    -1.9400    -3.1750 hc         1 BHP       0.049200
     58 H17          2.2070     1.0040    -4.9710 ha         1 BHP       0.128000
     59 H18         -0.1670     1.3950    -5.4380 ha         1 BHP       0.131000
     60 H21          1.1790    -2.3550    -2.5390 ha         1 BHP       0.128000
     61 H20         -1.1780    -1.9790    -2.9760 ha         1 BHP       0.131000
     62 H291         5.7820     0.0400    -2.7480 hc         1 BHP       0.043700
     63 H292         5.4610    -1.2510    -1.6150 hc         1 BHP       0.043700
     64 H301         5.1850     0.4130     0.2290 hc         1 BHP       0.023700
     65 H302         5.3890     1.7240    -0.8930 hc         1 BHP       0.023700
     66 H221        -3.0870    -1.7670    -4.2160 h1         1 BHP       0.038700
     67 H222        -3.0800    -0.6500    -2.8460 h1         1 BHP       0.038700
     68 H24         -4.8880    -1.7440    -5.7630 ha         1 BHP       0.135000
     69 H28         -4.3410     1.5920    -3.1390 ha         1 BHP       0.135000
     70 H25         -7.0200    -0.7850    -6.5420 ha         1 BHP       0.128500
     71 H27         -6.4670     2.5590    -3.9240 ha         1 BHP       0.128500
     72 H26         -7.8170     1.3720    -5.6270 ha         1 BHP       0.125000
@<TRIPOS>BOND
     1     1     2 1   
     2     1    14 1   
     3     1    37 1   
     4     1    38 1   
     5     2     3 1   
     6     2    39 1   
     7     2    40 1   
     8     3     4 1   
     9     3    41 1   
    10     3    42 1   
    11     4     5 ar  
    12     4     6 ar  
    13     5     7 ar  
    14     5    43 1   
    15     6     8 ar  
    16     6    44 1   
    17     7     9 ar  
    18     7    45 1   
    19     8     9 ar  
    20     8    46 1   
    21     9    47 1   
    22    10    11 2   
    23    10    12 1   
    24    10    15 1   
    25    12    13 1   
    26    12    48 1   
    27    12    49 1   
    28    13    14 1   
    29    13    50 1   
    30    13    51 1   
    31    14    52 1   
    32    14    53 1   
    33    15    16 1   
    34    15    54 1   
    35    16    17 1   
    36    16    25 1   
    37    16    55 1   
    38    17    18 1   
    39    17    56 1   
    40    17    57 1   
    41    18    19 ar  
    42    18    21 ar  
    43    19    20 ar  
    44    19    58 1   
    45    20    23 ar  
    46    20    59 1   
    47    21    22 ar  
    48    21    60 1   
    49    22    23 ar  
    50    22    61 1   
    51    23    24 1   
    52    24    30 1   
    53    25    26 1   
    54    25    62 1   
    55    25    63 1   
    56    26    27 1   
    57    26    64 1   
    58    26    65 1   
    59    27    28 1   
    60    27    29 1   
    61    30    31 1   
    62    30    66 1   
    63    30    67 1   
    64    31    32 ar  
    65    31    33 ar  
    66    32    34 ar  
    67    32    68 1   
    68    33    35 ar  
    69    33    69 1   
    70    34    36 ar  
    71    34    70 1   
    72    35    36 ar  
    73    35    71 1   
    74    36    72 1   
@<TRIPOS>SUBSTRUCTURE
     1 BHP         1 TEMP              0 ****  ****    0 ROOT
