@<TRIPOS>MOLECULE
BHQ
   38    38     1     0     0
SMALL
No Charge or Current Charge


@<TRIPOS>ATOM
      1 O1          -1.5570     2.2940    -0.0370 oh         1 BHQ      -0.539100
      2 O2           1.5780    -2.2670    -0.0360 oh         1 BHQ      -0.539100
      3 C1          -0.8220     1.1420    -0.0370 ca         1 BHQ       0.105100
      4 C2          -1.4320    -0.1440    -0.0370 ca         1 BHQ      -0.052800
      5 C3          -0.5550    -1.2570    -0.0360 ca         1 BHQ      -0.174000
      6 C4           0.8430    -1.1150    -0.0360 ca         1 BHQ       0.105100
      7 C5           1.4530     0.1710    -0.0360 ca         1 BHQ      -0.052800
      8 C6           0.5770     1.2850    -0.0370 ca         1 BHQ      -0.174000
      9 C7          -2.9900    -0.3400    -0.0370 c3         1 BHQ       0.015300
     10 C8          -3.4150    -1.8400    -0.0370 c3         1 BHQ      -0.082767
     11 C9          -3.6170     0.2950     1.2380 c3         1 BHQ      -0.082767
     12 C10         -3.6160     0.2940    -1.3120 c3         1 BHQ      -0.082767
     13 C11          3.0120     0.3670    -0.0360 c3         1 BHQ       0.015300
     14 C12          3.4370     1.8670    -0.0360 c3         1 BHQ      -0.082767
     15 C13          3.6380    -0.2670    -1.3110 c3         1 BHQ      -0.082767
     16 C14          3.6380    -0.2670     1.2390 c3         1 BHQ      -0.082767
     17 HO1         -0.9440     3.0580    -0.0370 ho         1 BHQ       0.458000
     18 HO2          0.9650    -3.0310    -0.0360 ho         1 BHQ       0.458000
     19 H3          -0.9450    -2.2690    -0.0360 ha         1 BHQ       0.113000
     20 H6           0.9660     2.2960    -0.0370 ha         1 BHQ       0.113000
     21 H81         -3.0430    -2.3590     0.8550 hc         1 BHQ       0.036033
     22 H82         -4.5080    -1.9390    -0.0370 hc         1 BHQ       0.036033
     23 H83         -3.0430    -2.3590    -0.9280 hc         1 BHQ       0.036033
     24 H91         -3.5150     1.3840     1.2560 hc         1 BHQ       0.036033
     25 H92         -4.6900     0.0740     1.2990 hc         1 BHQ       0.036033
     26 H93         -3.1390    -0.1040     2.1410 hc         1 BHQ       0.036033
     27 H101        -3.1390    -0.1050    -2.2150 hc         1 BHQ       0.036033
     28 H102        -4.6890     0.0740    -1.3730 hc         1 BHQ       0.036033
     29 H103        -3.5150     1.3840    -1.3300 hc         1 BHQ       0.036033
     30 H121         3.0650     2.3860    -0.9280 hc         1 BHQ       0.036033
     31 H122         3.0650     2.3860     0.8550 hc         1 BHQ       0.036033
     32 H123         4.5290     1.9670    -0.0360 hc         1 BHQ       0.036033
     33 H131         4.7110    -0.0470    -1.3720 hc         1 BHQ       0.036033
     34 H132         3.5360    -1.3570    -1.3290 hc         1 BHQ       0.036033
     35 H133         3.1600     0.1320    -2.2140 hc         1 BHQ       0.036033
     36 H141         3.1600     0.1320     2.1420 hc         1 BHQ       0.036033
     37 H142         3.5360    -1.3570     1.2570 hc         1 BHQ       0.036033
     38 H143         4.7100    -0.0470     1.3000 hc         1 BHQ       0.036033
@<TRIPOS>BOND
     1     1     3 1   
     2     1    17 1   
     3     2     6 1   
     4     2    18 1   
     5     3     4 ar  
     6     3     8 ar  
     7     4     5 ar  
     8     4     9 1   
     9     5     6 ar  
    10     5    19 1   
    11     6     7 ar  
    12     7     8 ar  
    13     7    13 1   
    14     8    20 1   
    15     9    10 1   
    16     9    11 1   
    17     9    12 1   
    18    10    21 1   
    19    10    22 1   
    20    10    23 1   
    21    11    24 1   
    22    11    25 1   
    23    11    26 1   
    24    12    27 1   
    25    12    28 1   
    26    12    29 1   
    27    13    14 1   
    28    13    15 1   
    29    13    16 1   
    30    14    30 1   
    31    14    31 1   
    32    14    32 1   
    33    15    33 1   
    34    15    34 1   
    35    15    35 1   
    36    16    36 1   
    37    16    37 1   
    38    16    38 1   
@<TRIPOS>SUBSTRUCTURE
     1 BHQ         1 TEMP              0 ****  ****    0 ROOT
