@<TRIPOS>MOLECULE
BHQ
   38    38     1     0     0
SMALL
abcg2


@<TRIPOS>ATOM
      1 O1          -1.5830     2.2490    -0.0370 oh         1 BHQ      -0.539100
      2 O2           1.6040    -2.2210    -0.0390 oh         1 BHQ      -0.539100
      3 C1          -0.8120     1.1310    -0.0370 ca         1 BHQ       0.105100
      4 C2          -1.4220    -0.1290    -0.0370 ca         1 BHQ      -0.052800
      5 C3          -0.5530    -1.2180    -0.0370 ca         1 BHQ      -0.174000
      6 C4           0.8330    -1.1030    -0.0370 ca         1 BHQ       0.105100
      7 C5           1.4430     0.1570    -0.0360 ca         1 BHQ      -0.052800
      8 C6           0.5750     1.2450    -0.0360 ca         1 BHQ      -0.174000
      9 C7          -2.9390    -0.3220    -0.0370 c3         1 BHQ       0.015300
     10 C8          -3.3200    -1.8060    -0.0370 c3         1 BHQ      -0.082767
     11 C9          -3.5540     0.3010     1.2250 c3         1 BHQ      -0.082767
     12 C10         -3.5540     0.3020    -1.2980 c3         1 BHQ      -0.082767
     13 C11          2.9610     0.3490    -0.0360 c3         1 BHQ       0.015300
     14 C12          3.3420     1.8330    -0.0350 c3         1 BHQ      -0.082767
     15 C13          3.5750    -0.2740    -1.2980 c3         1 BHQ      -0.082767
     16 C14          3.5750    -0.2760     1.2250 c3         1 BHQ      -0.082767
     17 HO1         -1.0220     3.0320    -0.0470 ho         1 BHQ       0.458000
     18 HO2          1.0430    -3.0040    -0.0260 ho         1 BHQ       0.458000
     19 H3          -0.9660    -2.2200    -0.0370 ha         1 BHQ       0.113000
     20 H6           0.9870     2.2480    -0.0350 ha         1 BHQ       0.113000
     21 H81         -2.9500    -2.3280     0.8480 hc         1 BHQ       0.036033
     22 H82         -4.4070    -1.8980    -0.0370 hc         1 BHQ       0.036033
     23 H83         -2.9510    -2.3280    -0.9220 hc         1 BHQ       0.036033
     24 H91         -3.3980     1.3760     1.2810 hc         1 BHQ       0.036033
     25 H92         -4.6310     0.1230     1.2430 hc         1 BHQ       0.036033
     26 H93         -3.1290    -0.1500     2.1230 hc         1 BHQ       0.036033
     27 H101        -3.1300    -0.1480    -2.1970 hc         1 BHQ       0.036033
     28 H102        -4.6320     0.1230    -1.3160 hc         1 BHQ       0.036033
     29 H103        -3.3990     1.3770    -1.3530 hc         1 BHQ       0.036033
     30 H121         2.9730     2.3550    -0.9200 hc         1 BHQ       0.036033
     31 H122         2.9720     2.3540     0.8500 hc         1 BHQ       0.036033
     32 H123         4.4290     1.9240    -0.0350 hc         1 BHQ       0.036033
     33 H131         4.6520    -0.0930    -1.3190 hc         1 BHQ       0.036033
     34 H132         3.4210    -1.3490    -1.3530 hc         1 BHQ       0.036033
     35 H133         3.1480     0.1760    -2.1970 hc         1 BHQ       0.036033
     36 H141         3.1500     0.1740     2.1240 hc         1 BHQ       0.036033
     37 H142         3.4190    -1.3500     1.2790 hc         1 BHQ       0.036033
     38 H143         4.6530    -0.0970     1.2440 hc         1 BHQ       0.036033
@<TRIPOS>BOND
     1     1     3 1   
     2     1    17 1   
     3     2     6 1   
     4     2    18 1   
     5     3     4 ar  
     6     3     8 ar  
     7     4     5 ar  
     8     4     9 1   
     9     5     6 ar  
    10     5    19 1   
    11     6     7 ar  
    12     7     8 ar  
    13     7    13 1   
    14     8    20 1   
    15     9    10 1   
    16     9    11 1   
    17     9    12 1   
    18    10    21 1   
    19    10    22 1   
    20    10    23 1   
    21    11    24 1   
    22    11    25 1   
    23    11    26 1   
    24    12    27 1   
    25    12    28 1   
    26    12    29 1   
    27    13    14 1   
    28    13    15 1   
    29    13    16 1   
    30    14    30 1   
    31    14    31 1   
    32    14    32 1   
    33    15    33 1   
    34    15    34 1   
    35    15    35 1   
    36    16    36 1   
    37    16    37 1   
    38    16    38 1   
@<TRIPOS>SUBSTRUCTURE
     1 BHQ         1 TEMP              0 ****  ****    0 ROOT
