@<TRIPOS>MOLECULE
BHR
   51    52     1     0     0
SMALL
bcc


@<TRIPOS>ATOM
      1 C1           3.3160    -0.9040     0.7280 ca         1 BHR      -0.131300
      2 C2           3.3710    -2.2770     0.4700 ca         1 BHR      -0.109000
      3 C3           4.5750    -2.9100     0.2240 ca         1 BHR      -0.181000
      4 C4           5.7590    -2.1770     0.2220 ca         1 BHR      -0.159000
      5 C5           5.7200    -0.8150     0.4600 ca         1 BHR       0.057100
      6 O5           6.8650    -0.0970     0.4440 oh         1 BHR      -0.531100
      7 C6           4.4970    -0.1630     0.7100 ca         1 BHR       0.134100
      8 O6           4.5750     1.1570     0.9340 oh         1 BHR      -0.645100
      9 C7           1.9860    -0.2670     1.0240 c3         1 BHR       0.225100
     10 N8           1.1730    -0.0600    -0.1700 n3         1 BHR      -0.730600
     11 C9          -0.1590     0.3860     0.2040 c3         1 BHR       0.169800
     12 C10         -1.1610     0.3740    -0.9440 c3         1 BHR       0.185800
     13 N11         -2.4630     0.8050    -0.4690 n3         1 BHR      -0.740600
     14 C12         -3.5690     0.1410    -1.1300 c3         1 BHR       0.237100
     15 C13         -3.6710    -1.2960    -0.6990 ca         1 BHR      -0.182300
     16 C14         -3.6040    -2.3240    -1.6320 ca         1 BHR      -0.088000
     17 C15         -3.6850    -3.6610    -1.2650 ca         1 BHR      -0.223000
     18 C16         -3.8300    -3.9750     0.0790 ca         1 BHR      -0.102000
     19 C17         -3.8950    -2.9680     1.0300 ca         1 BHR      -0.226000
     20 C18         -3.8200    -1.6210     0.6620 ca         1 BHR       0.241100
     21 O18         -3.9100    -0.7180     1.6390 oh         1 BHR      -0.556100
     22 C19          1.8030     0.7610    -1.1960 c3         1 BHR       0.038800
     23 C20          1.9050     2.2540    -0.8380 c          1 BHR       0.899600
     24 O20          2.7920     2.5900     0.0080 o          1 BHR      -0.802300
     25 C21         -2.6200     2.2360    -0.4120 c3         1 BHR       0.031800
     26 O21          1.1090     3.0450    -1.3530 o          1 BHR      -0.802300
     27 C22         -3.6310     2.7050     0.6450 c          1 BHR       0.931600
     28 O22         -4.0960     1.8480     1.4390 o          1 BHR      -0.836300
     29 O23         -3.9010     3.9160     0.6510 o          1 BHR      -0.836300
     30 H2           2.4510    -2.8490     0.4790 ha         1 BHR       0.127000
     31 H3           4.6040    -3.9760     0.0360 ha         1 BHR       0.105000
     32 H4           6.7090    -2.6590     0.0260 ha         1 BHR       0.113000
     33 HO5          6.6350     0.8340     0.5730 ho         1 BHR       0.443000
     34 HO6          3.7770     1.6970     0.5370 ho         1 BHR       0.536000
     35 H7           1.4250    -0.9490     1.6700 h1         1 BHR       0.038700
     36 H7A          2.1190     0.6530     1.6100 h1         1 BHR       0.038700
     37 H9          -0.5390    -0.3000     0.9660 h1         1 BHR       0.042700
     38 H9A         -0.1440     1.3810     0.6790 h1         1 BHR       0.042700
     39 H10         -0.8220     0.9920    -1.7860 h1         1 BHR       0.031200
     40 H10A        -1.2380    -0.6500    -1.3160 h1         1 BHR       0.031200
     41 H12         -4.4910     0.6650    -0.8660 h1         1 BHR       0.028700
     42 H12A        -3.4990     0.1940    -2.2290 h1         1 BHR       0.028700
     43 H14         -3.4810    -2.0620    -2.6770 ha         1 BHR       0.107000
     44 H15         -3.6290    -4.4390    -2.0140 ha         1 BHR       0.102000
     45 H16         -3.8930    -5.0090     0.3940 ha         1 BHR       0.097000
     46 H17         -4.0110    -3.2170     2.0780 ha         1 BHR       0.122000
     47 HO18        -3.8270     0.2430     1.3630 ho         1 BHR       0.538000
     48 H19          2.7950     0.3490    -1.3990 h1         1 BHR       0.037200
     49 H19A         1.2350     0.6580    -2.1210 h1         1 BHR       0.037200
     50 H21         -1.6550     2.6880    -0.1620 h1         1 BHR       0.040700
     51 H21A        -2.8980     2.6740    -1.3850 h1         1 BHR       0.040700
@<TRIPOS>BOND
     1     1     2 ar  
     2     1     7 ar  
     3     1     9 1   
     4     2     3 ar  
     5     2    30 1   
     6     3     4 ar  
     7     3    31 1   
     8     4     5 ar  
     9     4    32 1   
    10     5     6 1   
    11     5     7 ar  
    12     6    33 1   
    13     7     8 1   
    14     8    34 1   
    15     9    10 1   
    16     9    35 1   
    17     9    36 1   
    18    10    11 1   
    19    10    22 1   
    20    11    12 1   
    21    11    37 1   
    22    11    38 1   
    23    12    13 1   
    24    12    39 1   
    25    12    40 1   
    26    13    14 1   
    27    13    25 1   
    28    14    15 1   
    29    14    41 1   
    30    14    42 1   
    31    15    16 ar  
    32    15    20 ar  
    33    16    17 ar  
    34    16    43 1   
    35    17    18 ar  
    36    17    44 1   
    37    18    19 ar  
    38    18    45 1   
    39    19    20 ar  
    40    19    46 1   
    41    20    21 1   
    42    21    47 1   
    43    22    23 1   
    44    22    48 1   
    45    22    49 1   
    46    23    24 1   
    47    23    26 1   
    48    25    27 1   
    49    25    50 1   
    50    25    51 1   
    51    27    28 1   
    52    27    29 1   
@<TRIPOS>SUBSTRUCTURE
     1 BHR         1 TEMP              0 ****  ****    0 ROOT
