@<TRIPOS>MOLECULE
BHR
   51    52     1     0     0
SMALL
No Charge or Current Charge


@<TRIPOS>ATOM
      1 C1           3.5610    -0.6220     0.8870 ca         1 BHR      -0.131300
      2 C2           3.5110    -2.0320     0.9260 ca         1 BHR      -0.091000
      3 C3           4.6760    -2.8000     0.7550 ca         1 BHR      -0.163000
      4 C4           5.9120    -2.1680     0.5500 ca         1 BHR      -0.141000
      5 C5           5.9760    -0.7670     0.5100 ca         1 BHR       0.057100
      6 O5           7.1740    -0.1420     0.3140 oh         1 BHR      -0.570100
      7 C6           4.8080     0.0130     0.6670 ca         1 BHR       0.134100
      8 O6           4.9270     1.3800     0.6050 oh         1 BHR      -0.684100
      9 C7           2.2690     0.1600     1.1310 c3         1 BHR       0.225100
     10 N8           1.2580     0.0050     0.0520 n3         1 BHR      -0.730600
     11 C9          -0.0530     0.6120     0.4300 c3         1 BHR       0.169800
     12 C10         -1.2440     0.3000    -0.5270 c3         1 BHR       0.185800
     13 N11         -2.5980     0.7010    -0.0300 n3         1 BHR      -0.740600
     14 C12         -3.6810     0.1700    -0.9040 c3         1 BHR       0.237100
     15 C13         -3.8520    -1.3450    -0.7970 ca         1 BHR      -0.182300
     16 C14         -4.2160    -2.0930    -1.9340 ca         1 BHR      -0.070000
     17 C15         -4.4150    -3.4820    -1.8340 ca         1 BHR      -0.205000
     18 C16         -4.2580    -4.1340    -0.5990 ca         1 BHR      -0.084000
     19 C17         -3.8980    -3.3930     0.5380 ca         1 BHR      -0.208000
     20 C18         -3.6960    -2.0090     0.4360 ca         1 BHR       0.241100
     21 O18         -3.3200    -1.2960     1.5260 oh         1 BHR      -0.595100
     22 C19          1.7580     0.4430    -1.3010 c3         1 BHR       0.038800
     23 C20          2.1250     1.9520    -1.5090 c          1 BHR       0.689000
     24 O20          3.1440     2.3720    -0.9730 o          1 BHR      -0.697000
     25 C21         -2.7230     2.1900     0.1900 c3         1 BHR       0.031800
     26 O21          1.3790     2.6500    -2.1820 o          1 BHR      -0.697000
     27 C22         -4.0580     2.7610     0.7890 c          1 BHR       0.721000
     28 O22         -4.3160     2.5320     1.9640 o          1 BHR      -0.731000
     29 O23         -4.7980     3.4060     0.0560 o          1 BHR      -0.731000
     30 H2           2.5600    -2.5330     1.0940 ha         1 BHR       0.109000
     31 H3           4.6190    -3.8860     0.7870 ha         1 BHR       0.087000
     32 H4           6.8140    -2.7610     0.4240 ha         1 BHR       0.095000
     33 HO5          6.9700     0.8220     0.3430 ho         1 BHR       0.482000
     34 HO6          4.1730     1.7430     0.0370 ho         1 BHR       0.575000
     35 H7           1.8460    -0.2060     2.0770 h1         1 BHR       0.038700
     36 H7A          2.4910     1.2220     1.2960 h1         1 BHR       0.038700
     37 H9          -0.3400     0.2490     1.4270 h1         1 BHR       0.042700
     38 H9A          0.0580     1.7010     0.5100 h1         1 BHR       0.042700
     39 H10         -1.0540     0.7850    -1.4930 h1         1 BHR       0.031200
     40 H10A        -1.2310    -0.7830    -0.7090 h1         1 BHR       0.031200
     41 H12         -4.6450     0.6180    -0.6270 h1         1 BHR       0.028700
     42 H12A        -3.4900     0.4490    -1.9500 h1         1 BHR       0.028700
     43 H14         -4.3500    -1.5990    -2.8940 ha         1 BHR       0.089000
     44 H15         -4.6950    -4.0530    -2.7150 ha         1 BHR       0.084000
     45 H16         -4.4140    -5.2080    -0.5250 ha         1 BHR       0.079000
     46 H17         -3.7690    -3.8920     1.4950 ha         1 BHR       0.104000
     47 HO18        -3.0300    -0.4200     1.1260 ho         1 BHR       0.577000
     48 H19          2.6580    -0.1290    -1.5610 h1         1 BHR       0.037200
     49 H19A         1.0200     0.1830    -2.0710 h1         1 BHR       0.037200
     50 H21         -1.9340     2.5300     0.8730 h1         1 BHR       0.040700
     51 H21A        -2.5520     2.7110    -0.7610 h1         1 BHR       0.040700
@<TRIPOS>BOND
     1     1     2 ar  
     2     1     7 ar  
     3     1     9 1   
     4     2     3 ar  
     5     2    30 1   
     6     3     4 ar  
     7     3    31 1   
     8     4     5 ar  
     9     4    32 1   
    10     5     6 1   
    11     5     7 ar  
    12     6    33 1   
    13     7     8 1   
    14     8    34 1   
    15     9    10 1   
    16     9    35 1   
    17     9    36 1   
    18    10    11 1   
    19    10    22 1   
    20    11    12 1   
    21    11    37 1   
    22    11    38 1   
    23    12    13 1   
    24    12    39 1   
    25    12    40 1   
    26    13    14 1   
    27    13    25 1   
    28    14    15 1   
    29    14    41 1   
    30    14    42 1   
    31    15    16 ar  
    32    15    20 ar  
    33    16    17 ar  
    34    16    43 1   
    35    17    18 ar  
    36    17    44 1   
    37    18    19 ar  
    38    18    45 1   
    39    19    20 ar  
    40    19    46 1   
    41    20    21 1   
    42    21    47 1   
    43    22    23 1   
    44    22    48 1   
    45    22    49 1   
    46    23    24 1   
    47    23    26 1   
    48    25    27 1   
    49    25    50 1   
    50    25    51 1   
    51    27    28 1   
    52    27    29 1   
@<TRIPOS>SUBSTRUCTURE
     1 BHR         1 TEMP              0 ****  ****    0 ROOT
