@<TRIPOS>MOLECULE
BHS
   32    33     1     0     0
SMALL
abcg2


@<TRIPOS>ATOM
      1 N1          -1.2400     0.2580    -2.4740 nc         1 BHS      -0.748300
      2 C2          -0.2650     0.3750    -3.3290 cd         1 BHS       0.727800
      3 N2          -0.4990     0.8900    -4.5550 nv         1 BHS      -1.030200
      4 N3           1.0090     0.0360    -3.0250 ns         1 BHS      -0.440400
      5 C4           1.4090    -0.4170    -1.7660 c          1 BHS       0.593200
      6 O4           2.5960    -0.6710    -1.5630 o          1 BHS      -0.562000
      7 C4A          0.3460    -0.5520    -0.8390 cd         1 BHS      -0.228200
      8 C8A         -0.9360    -0.2230    -1.2430 cc         1 BHS       0.424600
      9 N5           0.6560    -0.9290     0.4910 nu         1 BHS      -0.741200
     10 C6          -0.4350    -0.8390     1.4470 c6         1 BHS       0.146500
     11 C7          -1.7830    -1.1540     0.7960 c6         1 BHS       0.195800
     12 N8          -1.9650    -0.3360    -0.3750 nu         1 BHS      -0.785200
     13 C1          -0.3960     0.5380     2.1410 c3         1 BHS       0.159300
     14 O1          -0.0890     1.5700     1.2370 oh         1 BHS      -0.647000
     15 C5           0.5920     0.5350     3.3210 c3         1 BHS       0.128300
     16 O2           0.2190    -0.4390     4.2790 oh         1 BHS      -0.661000
     17 C3           0.7370     1.9090     3.9580 c3         1 BHS      -0.117100
     18 HN21        -1.4640     0.9450    -4.8350 hn         1 BHS       0.490000
     19 HN22         0.1490     0.7040    -5.3020 hn         1 BHS       0.490000
     20 HN3          1.7380     0.1510    -3.7150 hn         1 BHS       0.325500
     21 HN5          1.1200    -1.8260     0.5300 hn         1 BHS       0.444000
     22 H6          -0.2730    -1.6010     2.2100 h1         1 BHS       0.075700
     23 H71         -1.8090    -2.2220     0.5460 h1         1 BHS       0.044200
     24 H72         -2.5990    -0.9660     1.4950 h1         1 BHS       0.044200
     25 HN8         -2.8920    -0.2390    -0.7580 hn         1 BHS       0.498000
     26 H1          -1.3930     0.7680     2.5380 h1         1 BHS       0.058700
     27 HO1          0.7310     1.3150     0.7950 ho         1 BHS       0.465000
     28 H2           1.5700     0.2110     2.9450 h1         1 BHS       0.085700
     29 HO2         -0.6100    -0.1600     4.6840 ho         1 BHS       0.434000
     30 H3'1         1.4130     1.8610     4.8130 hc         1 BHS       0.043367
     31 H3'2         1.1400     2.6370     3.2560 hc         1 BHS       0.043367
     32 H3'3        -0.2280     2.2850     4.3100 hc         1 BHS       0.043367
@<TRIPOS>BOND
     1     1     2 2   
     2     1     8 1   
     3     2     3 1   
     4     2     4 1   
     5     3    18 1   
     6     3    19 1   
     7     4     5 1   
     8     4    20 1   
     9     5     6 2   
    10     5     7 1   
    11     7     8 2   
    12     7     9 1   
    13     8    12 1   
    14     9    10 1   
    15     9    21 1   
    16    10    11 1   
    17    10    13 1   
    18    10    22 1   
    19    11    12 1   
    20    11    23 1   
    21    11    24 1   
    22    12    25 1   
    23    13    14 1   
    24    13    15 1   
    25    13    26 1   
    26    14    27 1   
    27    15    16 1   
    28    15    17 1   
    29    15    28 1   
    30    16    29 1   
    31    17    30 1   
    32    17    31 1   
    33    17    32 1   
@<TRIPOS>SUBSTRUCTURE
     1 BHS         1 TEMP              0 ****  ****    0 ROOT
