@<TRIPOS>MOLECULE
BHS
   32    33     1     0     0
SMALL
No Charge or Current Charge


@<TRIPOS>ATOM
      1 N1          -1.2450     0.2180    -2.6340 nc         1 BHS      -0.748300
      2 C2          -0.2280     0.2720    -3.4460 cd         1 BHS       0.727800
      3 N2          -0.5250     0.6080    -4.6880 nv         1 BHS      -1.030200
      4 N3           1.0570     0.0160    -3.1680 ns         1 BHS      -0.440400
      5 C4           1.4860    -0.3440    -1.9390 c          1 BHS       0.593200
      6 O4           2.6620    -0.5730    -1.6990 o          1 BHS      -0.562000
      7 C4A          0.3790    -0.4150    -0.9460 cd         1 BHS      -0.228200
      8 C8A         -0.9120    -0.1350    -1.3650 cc         1 BHS       0.424600
      9 N5           0.6350    -0.7810     0.3870 nu         1 BHS      -0.741200
     10 C6          -0.4610    -0.7760     1.4200 c6         1 BHS       0.146500
     11 C7          -1.8780    -0.9420     0.7400 c6         1 BHS       0.195800
     12 N8          -1.9870    -0.2130    -0.5490 nu         1 BHS      -0.785200
     13 C1          -0.3810     0.5460     2.2660 c3         1 BHS       0.159300
     14 O1          -0.0150     1.6090     1.3770 oh         1 BHS      -0.647000
     15 C5           0.6320     0.4770     3.4580 c3         1 BHS       0.128300
     16 O2           0.2620    -0.5690     4.3730 oh         1 BHS      -0.661000
     17 C3           0.7330     1.7930     4.2610 c3         1 BHS      -0.117100
     18 HN21        -1.5190     0.5990    -4.8760 hn         1 BHS       0.490000
     19 HN22         0.0570     0.2300    -5.4250 hn         1 BHS       0.490000
     20 HN3          1.7590     0.1060    -3.8830 hn         1 BHS       0.325500
     21 HN5          1.5710    -1.1340     0.6240 hn         1 BHS       0.444000
     22 H6          -0.3360    -1.6260     2.1080 h1         1 BHS       0.075700
     23 H71         -2.0390    -2.0130     0.5520 h1         1 BHS       0.044200
     24 H72         -2.6680    -0.6240     1.4370 h1         1 BHS       0.044200
     25 HN8         -2.8720    -0.1870    -1.0490 hn         1 BHS       0.498000
     26 H1          -1.3740     0.7420     2.6940 h1         1 BHS       0.058700
     27 HO1          0.2590     1.0930     0.5750 ho         1 BHS       0.465000
     28 H2           1.6250     0.2610     3.0370 h1         1 BHS       0.085700
     29 HO2         -0.4150    -0.1990     4.9810 ho         1 BHS       0.434000
     30 H3'1         1.4290     1.6800     5.1020 hc         1 BHS       0.043367
     31 H3'2         1.1060     2.6080     3.6300 hc         1 BHS       0.043367
     32 H3'3        -0.2450     2.0890     4.6590 hc         1 BHS       0.043367
@<TRIPOS>BOND
     1     1     2 2   
     2     1     8 1   
     3     2     3 1   
     4     2     4 1   
     5     3    18 1   
     6     3    19 1   
     7     4     5 1   
     8     4    20 1   
     9     5     6 2   
    10     5     7 1   
    11     7     8 2   
    12     7     9 1   
    13     8    12 1   
    14     9    10 1   
    15     9    21 1   
    16    10    11 1   
    17    10    13 1   
    18    10    22 1   
    19    11    12 1   
    20    11    23 1   
    21    11    24 1   
    22    12    25 1   
    23    13    14 1   
    24    13    15 1   
    25    13    26 1   
    26    14    27 1   
    27    15    16 1   
    28    15    17 1   
    29    15    28 1   
    30    16    29 1   
    31    17    30 1   
    32    17    31 1   
    33    17    32 1   
@<TRIPOS>SUBSTRUCTURE
     1 BHS         1 TEMP              0 ****  ****    0 ROOT
