@<TRIPOS>MOLECULE
BHT
   79    84     1     0     0
SMALL
No Charge or Current Charge


@<TRIPOS>ATOM
      1 O43         17.8640     1.2040    44.8130 o          1 BHT      -0.683033
      2 S39         18.5680     2.4460    45.1700 s6         1 BHT       1.253100
      3 O44         19.0140     2.5640    46.5670 o          1 BHT      -0.683033
      4 O45         19.5020     2.9610    44.1580 o          1 BHT      -0.683033
      5 C32         17.2120     3.7070    45.0830 ca         1 BHT      -0.199500
      6 C26         17.2700     4.8740    45.8760 ca         1 BHT      -0.033500
      7 C38         16.1180     3.5220    44.2120 ca         1 BHT      -0.021000
      8 C33         15.0910     4.4790    44.1520 ca         1 BHT      -0.129500
      9 C27         15.1520     5.6320    44.9510 ca         1 BHT      -0.127000
     10 C23         16.2480     5.8440    45.8050 ca         1 BHT      -0.054200
     11 N20         16.2820     6.9980    46.6010 nu         1 BHT      -0.349000
     12 C17         17.2910     7.8670    46.9550 cc         1 BHT       0.423900
     13 C12         17.0300     8.8290    47.9730 cc         1 BHT      -0.373850
     14 C6          18.0030     9.7290    48.3560 cd         1 BHT      -0.056500
     15 C11         18.5600     7.8330    46.3010 cc         1 BHT      -0.373850
     16 C5          19.5570     8.7180    46.6580 cd         1 BHT      -0.056500
     17 C2          19.2840     9.6780    47.6980 cd         1 BHT      -0.220500
     18 C1          20.2640    10.5710    48.0650 ce         1 BHT       0.309600
     19 C4          20.7150    11.6620    47.1460 ca         1 BHT      -0.229800
     20 C10         19.7880    12.2810    46.2850 ca         1 BHT       0.009000
     21 C16         20.2050    13.2960    45.4080 ca         1 BHT      -0.220500
     22 C9          22.0690    12.0540    47.0930 ca         1 BHT       0.009000
     23 C15         22.4760    13.0710    46.2140 ca         1 BHT      -0.220500
     24 C19         21.5430    13.7060    45.3810 ca         1 BHT       0.412000
     25 N22         21.9230    14.7060    44.4880 nu         1 BHT      -0.943000
     26 C25         22.9790    15.6180    44.4570 ca         1 BHT       0.258000
     27 C30         23.3610    16.1720    43.2270 ca         1 BHT      -0.165500
     28 C36         24.4100    17.1060    43.1590 ca         1 BHT      -0.002500
     29 C42         25.0860    17.5020    44.3310 ca         1 BHT      -0.218500
     30 S49         26.4570    18.7420    44.2490 s6         1 BHT       1.258100
     31 O51         27.0220    18.4920    42.9140 o          1 BHT      -0.687867
     32 O52         27.2950    18.3570    45.3950 o          1 BHT      -0.687867
     33 O50         25.7110    20.0010    44.3990 o          1 BHT      -0.687867
     34 C37         24.6830    16.9630    45.5710 ca         1 BHT      -0.002500
     35 C31         23.6340    16.0290    45.6310 ca         1 BHT      -0.165500
     36 C3          20.9240    10.5050    49.4050 ca         1 BHT      -0.232300
     37 C8          21.2630    11.6800    50.1070 ca         1 BHT       0.011500
     38 C14         21.8640    11.5980    51.3740 ca         1 BHT      -0.219250
     39 C7          21.1690     9.2530    50.0040 ca         1 BHT       0.011500
     40 C13         21.7730     9.1810    51.2700 ca         1 BHT      -0.219250
     41 C18         22.1360    10.3520    51.9510 ca         1 BHT       0.416000
     42 N21         22.7190    10.3090    53.2160 nu         1 BHT      -0.939500
     43 C24         23.4790     9.3490    53.8970 ca         1 BHT       0.211000
     44 C28         24.2410     8.3770    53.2150 ca         1 BHT      -0.033500
     45 C29         23.5120     9.3860    55.3010 ca         1 BHT      -0.127000
     46 C35         24.2700     8.4460    56.0190 ca         1 BHT      -0.129500
     47 C40         25.0140     7.4680    55.3370 ca         1 BHT      -0.021000
     48 C34         25.0140     7.4320    53.9270 ca         1 BHT      -0.199500
     49 S41         25.9950     6.1540    53.0150 s6         1 BHT       1.253100
     50 O47         24.9900     5.0950    52.8420 o          1 BHT      -0.683033
     51 O48         27.0800     5.8570    53.9620 o          1 BHT      -0.683033
     52 O46         26.3770     6.8740    51.7900 o          1 BHT      -0.683033
     53 H26         18.1060     5.0210    46.5560 ha         1 BHT       0.145500
     54 H38         16.0590     2.6350    43.5830 ha         1 BHT       0.137500
     55 H33         14.2470     4.3250    43.4840 ha         1 BHT       0.099000
     56 H27         14.3500     6.3650    44.8950 ha         1 BHT       0.092500
     57 H20         15.3700     7.3570    46.8620 hn         1 BHT       0.331000
     58 H12         16.0540     8.8370    48.4490 ha         1 BHT       0.207000
     59 H6          17.8080    10.4620    49.1390 ha         1 BHT       0.195750
     60 H11         18.7250     7.1140    45.5070 ha         1 BHT       0.207000
     61 H5          20.5260     8.6970    46.1600 ha         1 BHT       0.195750
     62 H10         18.7410    11.9810    46.2970 ha         1 BHT       0.126500
     63 H16         19.4780    13.7700    44.7550 ha         1 BHT       0.135500
     64 H9          22.8120    11.5640    47.7210 ha         1 BHT       0.126500
     65 H15         23.5240    13.3460    46.1680 ha         1 BHT       0.135500
     66 H22         21.2930    14.7830    43.6910 hn         1 BHT       0.496000
     67 H30         22.8520    15.8760    42.3140 ha         1 BHT       0.102500
     68 H36         24.6930    17.5220    42.1940 ha         1 BHT       0.136500
     69 H37         25.1750    17.2730    46.4910 ha         1 BHT       0.136500
     70 H31         23.3240    15.6450    46.5980 ha         1 BHT       0.102500
     71 H8          21.0530    12.6590    49.6790 ha         1 BHT       0.127750
     72 H14         22.1240    12.5100    51.9030 ha         1 BHT       0.139000
     73 H7          20.8930     8.3340    49.4900 ha         1 BHT       0.127750
     74 H13         21.9350     8.2110    51.7270 ha         1 BHT       0.139000
     75 H21         22.5480    11.1560    53.7580 hn         1 BHT       0.491000
     76 H28         24.2480     8.3650    52.1290 ha         1 BHT       0.145500
     77 H29         22.9410    10.1370    55.8410 ha         1 BHT       0.092500
     78 H35         24.2810     8.4740    57.1060 ha         1 BHT       0.099000
     79 H40         25.5930     6.7430    55.9070 ha         1 BHT       0.137500
@<TRIPOS>BOND
     1     1     2 1   
     2     2     3 1   
     3     2     4 1   
     4     2     5 1   
     5     5     6 ar  
     6     5     7 ar  
     7     6    10 ar  
     8     6    53 1   
     9     7     8 ar  
    10     7    54 1   
    11     8     9 ar  
    12     8    55 1   
    13     9    10 ar  
    14     9    56 1   
    15    10    11 1   
    16    11    12 2   
    17    11    57 1   
    18    12    13 1   
    19    12    15 1   
    20    13    14 2   
    21    13    58 1   
    22    14    17 1   
    23    14    59 1   
    24    15    16 2   
    25    15    60 1   
    26    16    17 1   
    27    16    61 1   
    28    17    18 2   
    29    18    19 1   
    30    18    36 1   
    31    19    20 ar  
    32    19    22 ar  
    33    20    21 ar  
    34    20    62 1   
    35    21    24 ar  
    36    21    63 1   
    37    22    23 ar  
    38    22    64 1   
    39    23    24 ar  
    40    23    65 1   
    41    24    25 1   
    42    25    26 1   
    43    25    66 1   
    44    26    27 ar  
    45    26    35 ar  
    46    27    28 ar  
    47    27    67 1   
    48    28    29 ar  
    49    28    68 1   
    50    29    30 1   
    51    29    34 ar  
    52    30    31 1   
    53    30    32 1   
    54    30    33 1   
    55    34    35 ar  
    56    34    69 1   
    57    35    70 1   
    58    36    37 ar  
    59    36    39 ar  
    60    37    38 ar  
    61    37    71 1   
    62    38    41 ar  
    63    38    72 1   
    64    39    40 ar  
    65    39    73 1   
    66    40    41 ar  
    67    40    74 1   
    68    41    42 1   
    69    42    43 1   
    70    42    75 1   
    71    43    44 ar  
    72    43    45 ar  
    73    44    48 ar  
    74    44    76 1   
    75    45    46 ar  
    76    45    77 1   
    77    46    47 ar  
    78    46    78 1   
    79    47    48 ar  
    80    47    79 1   
    81    48    49 1   
    82    49    50 1   
    83    49    51 1   
    84    49    52 1   
@<TRIPOS>SUBSTRUCTURE
     1 BHT         1 TEMP              0 ****  ****    0 ROOT
