@<TRIPOS>MOLECULE
BHT
   79    84     1     0     0
SMALL
bcc


@<TRIPOS>ATOM
      1 O43         18.3220     2.6200    42.6390 o          1 BHT      -0.683033
      2 S39         18.7120     3.9640    43.0940 s6         1 BHT       1.253100
      3 O44         19.8870     3.9690    43.9810 o          1 BHT      -0.683033
      4 O45         18.7980     4.9470    42.0020 o          1 BHT      -0.683033
      5 C32         17.3410     4.5390    44.0990 ca         1 BHT      -0.199500
      6 C26         17.5900     5.2640    45.2530 ca         1 BHT      -0.051500
      7 C38         16.0400     4.2820    43.6870 ca         1 BHT      -0.039000
      8 C33         14.9830     4.7620    44.4460 ca         1 BHT      -0.147500
      9 C27         15.2170     5.5120    45.5880 ca         1 BHT      -0.145000
     10 C23         16.5240     5.7740    45.9930 ca         1 BHT      -0.054200
     11 N20         16.7310     6.4980    47.1740 nu         1 BHT      -0.298700
     12 C17         17.6460     7.4690    47.4100 cc         1 BHT       0.423900
     13 C12         17.7630     7.9740    48.7230 cc         1 BHT      -0.323850
     14 C6          18.6750     8.9500    49.0220 cd         1 BHT      -0.006500
     15 C11         18.4640     8.0260    46.4070 cc         1 BHT      -0.323850
     16 C5          19.3540     9.0230    46.7140 cd         1 BHT      -0.006500
     17 C2          19.5060     9.5110    48.0270 cd         1 BHT      -0.220500
     18 C1          20.4610    10.5340    48.3350 ce         1 BHT       0.309600
     19 C4          20.7610    11.5450    47.3650 ca         1 BHT      -0.229800
     20 C10         19.7810    12.0160    46.4650 ca         1 BHT      -0.009000
     21 C16         20.0630    12.9970    45.5530 ca         1 BHT      -0.238500
     22 C9          22.0520    12.1030    47.2610 ca         1 BHT      -0.009000
     23 C15         22.3540    13.0660    46.3330 ca         1 BHT      -0.238500
     24 C19         21.3570    13.5540    45.4650 ca         1 BHT       0.273600
     25 N22         21.5830    14.5030    44.5240 nu         1 BHT      -0.611000
     26 C25         22.7160    15.3000    44.3430 ca         1 BHT       0.119600
     27 C30         23.1120    15.5990    43.0370 ca         1 BHT      -0.183500
     28 C36         24.2000    16.4190    42.8070 ca         1 BHT      -0.020500
     29 C42         24.9200    16.9440    43.8760 ca         1 BHT      -0.218500
     30 S49         26.3190    18.0060    43.5380 s6         1 BHT       1.258100
     31 O51         27.1940    17.2140    42.6580 o          1 BHT      -0.687867
     32 O52         26.9210    18.3100    44.8470 o          1 BHT      -0.687867
     33 O50         25.7410    19.1850    42.8690 o          1 BHT      -0.687867
     34 C37         24.5250    16.6570    45.1730 ca         1 BHT      -0.020500
     35 C31         23.4220    15.8490    45.4100 ca         1 BHT      -0.183500
     36 C3          21.1170    10.5490    49.6070 ca         1 BHT      -0.232300
     37 C8          21.5160    11.7600    50.2160 ca         1 BHT      -0.006500
     38 C14         22.1420    11.7760    51.4320 ca         1 BHT      -0.237250
     39 C7          21.3920     9.3580    50.3100 ca         1 BHT      -0.006500
     40 C13         22.0400     9.3580    51.5180 ca         1 BHT      -0.237250
     41 C18         22.4380    10.5740    52.1110 ca         1 BHT       0.277600
     42 N21         23.0610    10.6560    53.3100 nu         1 BHT      -0.607500
     43 C24         23.5170     9.6130    54.1260 ca         1 BHT       0.072600
     44 C28         24.2120     8.5270    53.6060 ca         1 BHT      -0.051500
     45 C29         23.3140     9.7070    55.5030 ca         1 BHT      -0.145000
     46 C35         23.7850     8.7110    56.3410 ca         1 BHT      -0.147500
     47 C40         24.4430     7.6030    55.8230 ca         1 BHT      -0.039000
     48 C34         24.6510     7.5200    54.4550 ca         1 BHT      -0.199500
     49 S41         25.4480     6.0840    53.7340 s6         1 BHT       1.253100
     50 O47         24.3430     5.3260    53.1240 o          1 BHT      -0.683033
     51 O48         26.0960     5.3830    54.8540 o          1 BHT      -0.683033
     52 O46         26.3980     6.6190    52.7450 o          1 BHT      -0.683033
     53 H26         18.6080     5.4080    45.5910 ha         1 BHT       0.163500
     54 H38         15.8460     3.7040    42.7940 ha         1 BHT       0.155500
     55 H33         13.9650     4.5610    44.1400 ha         1 BHT       0.117000
     56 H27         14.3870     5.8950    46.1680 ha         1 BHT       0.110500
     57 H20         16.0790     6.3110    47.9220 hn         1 BHT       0.280700
     58 H12         17.1190     7.5850    49.5010 ha         1 BHT       0.157000
     59 H6          18.7230     9.3260    50.0360 ha         1 BHT       0.145750
     60 H11         18.3980     7.6850    45.3840 ha         1 BHT       0.157000
     61 H5          19.9850     9.4080    45.9250 ha         1 BHT       0.145750
     62 H10         18.7690    11.6390    46.5280 ha         1 BHT       0.144500
     63 H16         19.2810    13.3650    44.9010 ha         1 BHT       0.153500
     64 H9          22.8490    11.7220    47.8860 ha         1 BHT       0.144500
     65 H15         23.3730    13.4160    46.2570 ha         1 BHT       0.153500
     66 H22         20.8600    14.6160    43.8290 hn         1 BHT       0.440800
     67 H30         22.5640    15.1820    42.2010 ha         1 BHT       0.120500
     68 H36         24.4910    16.6320    41.7860 ha         1 BHT       0.154500
     69 H37         25.0640    17.0730    46.0130 ha         1 BHT       0.154500
     70 H31         23.1050    15.6770    46.4300 ha         1 BHT       0.120500
     71 H8          21.2830    12.7030    49.7400 ha         1 BHT       0.145750
     72 H14         22.4060    12.7230    51.8860 ha         1 BHT       0.157000
     73 H7          21.1270     8.4050    49.8710 ha         1 BHT       0.145750
     74 H13         22.2330     8.4130    52.0040 ha         1 BHT       0.157000
     75 H21         23.1390    11.5820    53.7040 hn         1 BHT       0.435800
     76 H28         24.4340     8.4780    52.5470 ha         1 BHT       0.163500
     77 H29         22.7860    10.5590    55.9120 ha         1 BHT       0.110500
     78 H35         23.6260     8.7940    57.4080 ha         1 BHT       0.117000
     79 H40         24.7970     6.8220    56.4820 ha         1 BHT       0.155500
@<TRIPOS>BOND
     1     1     2 1   
     2     2     3 1   
     3     2     4 1   
     4     2     5 1   
     5     5     6 ar  
     6     5     7 ar  
     7     6    10 ar  
     8     6    53 1   
     9     7     8 ar  
    10     7    54 1   
    11     8     9 ar  
    12     8    55 1   
    13     9    10 ar  
    14     9    56 1   
    15    10    11 1   
    16    11    12 2   
    17    11    57 1   
    18    12    13 1   
    19    12    15 1   
    20    13    14 2   
    21    13    58 1   
    22    14    17 1   
    23    14    59 1   
    24    15    16 2   
    25    15    60 1   
    26    16    17 1   
    27    16    61 1   
    28    17    18 2   
    29    18    19 1   
    30    18    36 1   
    31    19    20 ar  
    32    19    22 ar  
    33    20    21 ar  
    34    20    62 1   
    35    21    24 ar  
    36    21    63 1   
    37    22    23 ar  
    38    22    64 1   
    39    23    24 ar  
    40    23    65 1   
    41    24    25 1   
    42    25    26 1   
    43    25    66 1   
    44    26    27 ar  
    45    26    35 ar  
    46    27    28 ar  
    47    27    67 1   
    48    28    29 ar  
    49    28    68 1   
    50    29    30 1   
    51    29    34 ar  
    52    30    31 1   
    53    30    32 1   
    54    30    33 1   
    55    34    35 ar  
    56    34    69 1   
    57    35    70 1   
    58    36    37 ar  
    59    36    39 ar  
    60    37    38 ar  
    61    37    71 1   
    62    38    41 ar  
    63    38    72 1   
    64    39    40 ar  
    65    39    73 1   
    66    40    41 ar  
    67    40    74 1   
    68    41    42 1   
    69    42    43 1   
    70    42    75 1   
    71    43    44 ar  
    72    43    45 ar  
    73    44    48 ar  
    74    44    76 1   
    75    45    46 ar  
    76    45    77 1   
    77    46    47 ar  
    78    46    78 1   
    79    47    48 ar  
    80    47    79 1   
    81    48    49 1   
    82    49    50 1   
    83    49    51 1   
    84    49    52 1   
@<TRIPOS>SUBSTRUCTURE
     1 BHT         1 TEMP              0 ****  ****    0 ROOT
