@<TRIPOS>MOLECULE
BHV
  105   109     1     0     0
SMALL
No Charge or Current Charge


@<TRIPOS>ATOM
      1 C21          6.2000    -0.6260     1.4050 c3         1 BHV       0.146300
      2 C31         10.7970    -0.4850    -0.5220 c2         1 BHV      -0.018400
      3 C5           3.3590    -2.9900     0.2950 ca         1 BHV      -0.069000
      4 C2           4.0100    -0.2840     0.2250 ca         1 BHV      -0.089000
      5 C6           2.4780    -2.0710    -0.2960 ca         1 BHV      -0.103000
      6 C1           2.7740    -0.6900    -0.3350 ca         1 BHV      -0.080500
      7 C4           4.5810    -2.5760     0.8670 ca         1 BHV      -0.180300
      8 C13          5.5190    -3.6200     1.5100 c3         1 BHV       0.356300
      9 C25          8.5530    -0.2180     0.6510 c          1 BHV       0.613300
     10 C29          9.4490    -0.3340    -0.5350 ce         1 BHV      -0.311200
     11 C3           4.9030    -1.1930     0.8280 ca         1 BHV      -0.063300
     12 C33         11.6060    -0.6270    -1.7990 c3         1 BHV      -0.075400
     13 C35         11.6700    -0.5200     0.7220 c3         1 BHV      -0.075400
     14 C37          1.8890     0.3270    -0.9660 cc         1 BHV       0.310500
     15 C39          0.5540     0.1810    -1.4420 cc         1 BHV      -0.195300
     16 C40          0.1790     1.3740    -1.9590 cd         1 BHV      -0.144300
     17 C48         -1.1880     1.6570    -2.5230 c6         1 BHV      -0.026100
     18 C49         -1.9160     0.3250    -2.8280 c6         1 BHV       0.109000
     19 C51         -0.3660    -1.0150    -1.3650 c6         1 BHV       0.179300
     20 C59          0.7350     4.5760    -1.1420 c3         1 BHV      -0.102400
     21 C61          0.8440     6.0580    -1.5540 c3         1 BHV       0.172800
     22 C65          0.5880     7.0310     0.7390 c6         1 BHV       0.124800
     23 C66         -0.2250     8.0370     1.6080 c6         1 BHV       0.153100
     24 C68         -0.7550     9.3540    -0.3360 c6         1 BHV       0.153100
     25 C69          0.0500     8.3800    -1.2470 c6         1 BHV       0.124800
     26 C80         -4.2770    -1.1680    -1.6650 c3         1 BHV      -0.149400
     27 C82         -5.4010    -1.9760    -0.9430 c6         1 BHV      -0.050700
     28 C84         -5.4350    -1.6940     0.5740 c6         1 BHV      -0.099900
     29 C85         -6.5230    -2.5280     1.2880 c6         1 BHV       0.109500
     30 C87         -7.9160    -2.4540    -0.8420 c6         1 BHV       0.109500
     31 C88         -6.7910    -1.6330    -1.5150 c6         1 BHV      -0.099900
     32 C93        -11.9020    -2.5130     2.1840 c3         1 BHV      -0.107767
     33 C94        -11.2450    -4.9670     1.6830 c3         1 BHV      -0.107767
     34 C96        -12.3100    -3.5200    -0.1050 c3         1 BHV      -0.107767
     35 C98        -11.3810    -3.5240     1.1300 c3         1 BHV       0.225000
     36 F15          5.0900    -4.8920     1.3410 f          1 BHV      -0.112000
     37 F17          6.7670    -3.5730     0.9920 f          1 BHV      -0.112000
     38 F19          5.6320    -3.4330     2.8450 f          1 BHV      -0.112000
     39 N23          7.2610    -0.5970     0.4000 ns         1 BHV      -0.508900
     40 N41          1.2790     2.2080    -1.7920 na         1 BHV       0.153800
     41 N42          2.3370     1.5580    -1.1790 nd         1 BHV      -0.511800
     42 N50         -1.7780    -0.6780    -1.7230 n          1 BHV      -0.418800
     43 N63          0.1000     6.9960    -0.6790 n3         1 BHV      -0.715600
     44 N86         -7.8750    -2.4950     0.6550 n          1 BHV      -0.407800
     45 O27          8.9230     0.1200     1.7650 o          1 BHV      -0.613100
     46 O67         -0.2100     9.3530     1.0040 os         1 BHV      -0.447000
     47 O78         -2.5540    -2.6290    -0.8110 o          1 BHV      -0.601100
     48 O97         -8.9300    -3.1680     2.5990 o          1 BHV      -0.553000
     49 O99        -10.1060    -3.0780     0.6130 os         1 BHV      -0.479100
     50 H1           6.0280     0.4000     1.7580 h1         1 BHV       0.064700
     51 H2           6.5370    -1.2100     2.2700 h1         1 BHV       0.064700
     52 H3           3.0740    -4.0400     0.2960 ha         1 BHV       0.135000
     53 H4           4.2900     0.7670     0.2070 ha         1 BHV       0.138000
     54 H5           1.5800    -2.4760    -0.7400 ha         1 BHV       0.127000
     55 H6           8.9260    -0.3810    -1.4880 ha         1 BHV       0.170000
     56 H7          12.1180    -1.5960    -1.8370 hc         1 BHV       0.051533
     57 H8          10.9740    -0.5550    -2.6920 hc         1 BHV       0.051533
     58 H9          12.3670     0.1590    -1.8730 hc         1 BHV       0.051533
     59 H10         11.8010     0.4860     1.1360 hc         1 BHV       0.051533
     60 H11         11.2300    -1.1520     1.5020 hc         1 BHV       0.051533
     61 H12         12.6690    -0.9240     0.5150 hc         1 BHV       0.051533
     62 H13         -1.7770     2.2330    -1.7960 hc         1 BHV       0.063700
     63 H14         -1.1280     2.2660    -3.4350 hc         1 BHV       0.063700
     64 H15         -2.9650     0.5450    -3.0580 h1         1 BHV       0.052200
     65 H16         -1.4790    -0.1120    -3.7370 h1         1 BHV       0.052200
     66 H17         -0.0220    -1.8020    -2.0510 h1         1 BHV       0.066200
     67 H18         -0.3490    -1.4230    -0.3440 h1         1 BHV       0.066200
     68 H19          0.8880     3.7560    -3.1480 h1         1 BHV       0.066200
     69 H20          2.4370     3.8830    -2.2970 h1         1 BHV       0.066200
     70 H21         -0.3230     4.3140    -1.0190 hc         1 BHV       0.065700
     71 H22          1.9050     6.3390    -1.5880 h1         1 BHV       0.031200
     72 H23          1.6500     7.3160     0.7710 h1         1 BHV       0.041950
     73 H24          0.5060     6.0390     1.2060 h1         1 BHV       0.041950
     74 H25         -1.2650     7.6940     1.7060 h1         1 BHV       0.052200
     75 H26          0.2110     8.0990     2.6160 h1         1 BHV       0.052200
     76 H27         -0.7070    10.3740    -0.7440 h1         1 BHV       0.052200
     77 H28         -1.8110     9.0490    -0.3000 h1         1 BHV       0.052200
     78 H29         -0.4140     8.3670    -2.2440 h1         1 BHV       0.041950
     79 H30          1.0680     8.7780    -1.3710 h1         1 BHV       0.041950
     80 H31         -4.3790    -0.0910    -1.4890 hc         1 BHV       0.057700
     81 H32         -4.3950    -1.2190    -2.7530 hc         1 BHV       0.057700
     82 H33         -5.1990    -3.0430    -1.1160 hc         1 BHV       0.070700
     83 H34         -4.4600    -1.9100     1.0310 hc         1 BHV       0.050450
     84 H35         -5.6270    -0.6260     0.7490 hc         1 BHV       0.050450
     85 H36         -6.1920    -3.5760     1.3260 h1         1 BHV       0.060700
     86 H37         -6.5960    -2.1800     2.3290 h1         1 BHV       0.060700
     87 H38         -8.8770    -2.0390    -1.1790 h1         1 BHV       0.060700
     88 H39         -7.8670    -3.4890    -1.2110 h1         1 BHV       0.060700
     89 H40         -6.9950    -0.5630    -1.3750 hc         1 BHV       0.050450
     90 H41         -6.8130    -1.8130    -2.5980 hc         1 BHV       0.050450
     91 H42        -11.3520    -2.5850     3.1280 hc         1 BHV       0.048700
     92 H43        -11.8180    -1.4850     1.8120 hc         1 BHV       0.048700
     93 H44        -12.9570    -2.7070     2.4100 hc         1 BHV       0.048700
     94 H45        -12.2360    -5.4020     1.8590 hc         1 BHV       0.048700
     95 H46        -10.7160    -5.6090     0.9680 hc         1 BHV       0.048700
     96 H47        -10.7070    -4.9920     2.6360 hc         1 BHV       0.048700
     97 H48        -12.3820    -2.5140    -0.5350 hc         1 BHV       0.048700
     98 H49        -11.9310    -4.1980    -0.8800 hc         1 BHV       0.048700
     99 H50        -13.3210    -3.8460     0.1670 hc         1 BHV       0.048700
    100 H51          7.0410    -0.8970    -0.5410 hn         1 BHV       0.318500
    101 H52          1.2250     4.4200    -0.1740 hc         1 BHV       0.065700
    102 H53          0.4560     6.1460    -2.5790 h1         1 BHV       0.031200
    103 C57          1.3780     3.6270    -2.1750 c3         1 BHV       0.083600
    104 C76         -2.8160    -1.5720    -1.3730 c          1 BHV       0.606100
    105 C95         -8.9860    -2.9410     1.4000 c          1 BHV       0.657100
@<TRIPOS>BOND
     1     1    11 1   
     2     1    39 1   
     3     1    50 1   
     4     1    51 1   
     5     2    10 2   
     6     2    12 1   
     7     2    13 1   
     8     3     5 ar  
     9     3     7 ar  
    10     3    52 1   
    11     4     6 ar  
    12     4    11 ar  
    13     4    53 1   
    14     5     6 ar  
    15     5    54 1   
    16     6    14 1   
    17     7     8 1   
    18     7    11 ar  
    19     8    36 1   
    20     8    37 1   
    21     8    38 1   
    22     9    10 1   
    23     9    39 1   
    24     9    45 2   
    25    10    55 1   
    26    12    56 1   
    27    12    57 1   
    28    12    58 1   
    29    13    59 1   
    30    13    60 1   
    31    13    61 1   
    32    14    15 1   
    33    14    41 2   
    34    15    16 2   
    35    15    19 1   
    36    16    17 1   
    37    16    40 1   
    38    17    18 1   
    39    17    62 1   
    40    17    63 1   
    41    18    42 1   
    42    18    64 1   
    43    18    65 1   
    44    19    42 1   
    45    19    66 1   
    46    19    67 1   
    47    20    21 1   
    48    20    70 1   
    49    20   101 1   
    50    20   103 1   
    51    21    43 1   
    52    21    71 1   
    53    21   102 1   
    54    22    23 1   
    55    22    43 1   
    56    22    72 1   
    57    22    73 1   
    58    23    46 1   
    59    23    74 1   
    60    23    75 1   
    61    24    25 1   
    62    24    46 1   
    63    24    76 1   
    64    24    77 1   
    65    25    43 1   
    66    25    78 1   
    67    25    79 1   
    68    26    27 1   
    69    26    80 1   
    70    26    81 1   
    71    26   104 1   
    72    27    28 1   
    73    27    31 1   
    74    27    82 1   
    75    28    29 1   
    76    28    83 1   
    77    28    84 1   
    78    29    44 1   
    79    29    85 1   
    80    29    86 1   
    81    30    31 1   
    82    30    44 1   
    83    30    87 1   
    84    30    88 1   
    85    31    89 1   
    86    31    90 1   
    87    32    35 1   
    88    32    91 1   
    89    32    92 1   
    90    32    93 1   
    91    33    35 1   
    92    33    94 1   
    93    33    95 1   
    94    33    96 1   
    95    34    35 1   
    96    34    97 1   
    97    34    98 1   
    98    34    99 1   
    99    35    49 1   
   100    39   100 1   
   101    40    41 1   
   102    40   103 1   
   103    42   104 1   
   104    44   105 1   
   105    47   104 2   
   106    48   105 2   
   107    49   105 1   
   108    68   103 1   
   109    69   103 1   
@<TRIPOS>SUBSTRUCTURE
     1 BHV         1 TEMP              0 ****  ****    0 ROOT
