@<TRIPOS>MOLECULE
BHV
  105   109     1     0     0
SMALL
abcg2


@<TRIPOS>ATOM
      1 C21          6.6340    -0.0550     1.0740 c3         1 BHV       0.146300
      2 C31         10.4310    -0.5320    -2.0660 c2         1 BHV      -0.018400
      3 C5           3.7310    -2.4830     1.6290 ca         1 BHV      -0.069000
      4 C2           4.2280    -0.0250     0.5060 ca         1 BHV      -0.089000
      5 C6           2.7010    -1.7830     1.0230 ca         1 BHV      -0.103000
      6 C1           2.9310    -0.5380     0.4460 ca         1 BHV      -0.080500
      7 C4           5.0180    -1.9640     1.6730 ca         1 BHV      -0.180300
      8 C13          6.0950    -2.7460     2.3630 c3         1 BHV       0.356300
      9 C25          8.6360    -0.1250    -0.3270 c          1 BHV       0.613300
     10 C29          9.1830    -0.6580    -1.5930 ce         1 BHV      -0.311200
     11 C3           5.2730    -0.7060     1.1090 ca         1 BHV      -0.063300
     12 C33         10.7890    -1.1560    -3.3810 c3         1 BHV      -0.075400
     13 C35         11.5650     0.1930    -1.4120 c3         1 BHV      -0.075400
     14 C37          1.8670     0.2270    -0.2070 cc         1 BHV       0.310500
     15 C39          0.5850    -0.1790    -0.6430 cc         1 BHV      -0.195300
     16 C40          0.0530     0.9420    -1.2310 cd         1 BHV      -0.144300
     17 C48         -1.2610     0.9910    -1.9180 c6         1 BHV      -0.026100
     18 C49         -1.6140    -0.4470    -2.2860 c6         1 BHV       0.109000
     19 C51         -0.1490    -1.4780    -0.5750 c6         1 BHV       0.179300
     20 C59          0.2620     4.1450    -0.3540 c3         1 BHV      -0.102400
     21 C61          0.0950     5.5980    -0.7780 c3         1 BHV       0.172800
     22 C65          0.1860     6.5960     1.4250 c6         1 BHV       0.124800
     23 C66         -0.6000     7.4270     2.4210 c6         1 BHV       0.153100
     24 C68         -1.7330     8.4980     0.7040 c6         1 BHV       0.153100
     25 C69         -0.9700     7.6960    -0.3320 c6         1 BHV       0.124800
     26 C80         -3.8520    -1.9820    -1.2910 c3         1 BHV      -0.149400
     27 C82         -4.9440    -2.7820    -0.5920 c6         1 BHV      -0.050700
     28 C84         -5.3480    -2.1760     0.7520 c6         1 BHV      -0.099900
     29 C85         -6.5090    -2.9360     1.3810 c6         1 BHV       0.109500
     30 C87         -7.3050    -3.6390    -0.8040 c6         1 BHV       0.109500
     31 C88         -6.1750    -2.8860    -1.4940 c6         1 BHV      -0.099900
     32 C93        -11.0100    -0.4340    -0.0670 c3         1 BHV      -0.107767
     33 C94        -11.8080    -2.6170     0.9220 c3         1 BHV      -0.107767
     34 C96        -11.5920    -2.3540    -1.5470 c3         1 BHV      -0.107767
     35 C98        -11.0120    -1.9520    -0.1950 c3         1 BHV       0.225000
     36 F15          5.6950    -3.9750     2.7030 f          1 BHV      -0.112000
     37 F17          7.1880    -2.8960     1.6040 f          1 BHV      -0.112000
     38 F19          6.4950    -2.1490     3.4990 f          1 BHV      -0.112000
     39 N23          7.3450    -0.4590    -0.1200 ns         1 BHV      -0.508900
     40 N41          0.9740     1.9180    -1.1250 na         1 BHV       0.153800
     41 N42          2.0680     1.5050    -0.5040 nd         1 BHV      -0.511800
     42 N50         -1.4860    -1.3270    -1.1360 n          1 BHV      -0.418800
     43 N63         -0.5910     6.4040     0.2120 n3         1 BHV      -0.715600
     44 N86         -7.6340    -3.0170     0.4680 n          1 BHV      -0.407800
     45 O27          9.2490     0.5570     0.4880 o          1 BHV      -0.613100
     46 O67         -0.9790     8.6740     1.8830 os         1 BHV      -0.447000
     47 O78         -2.2640    -2.9370     0.2250 o          1 BHV      -0.601100
     48 O97         -9.0090    -1.7840     1.7870 o          1 BHV      -0.553000
     49 O99         -9.6620    -2.4770    -0.2590 os         1 BHV      -0.479100
     50 H1           6.4970     1.0300     1.0830 h1         1 BHV       0.064700
     51 H2           7.2270    -0.2870     1.9590 h1         1 BHV       0.064700
     52 H3           3.5050    -3.4430     2.0700 ha         1 BHV       0.135000
     53 H4           4.4340     0.9420     0.0630 ha         1 BHV       0.138000
     54 H5           1.7150    -2.2240     1.0310 ha         1 BHV       0.127000
     55 H6           8.4800    -1.2240    -2.1970 ha         1 BHV       0.170000
     56 H7          11.5760    -1.9010    -3.2440 hc         1 BHV       0.051533
     57 H8           9.9400    -1.6380    -3.8630 hc         1 BHV       0.051533
     58 H9          11.1920    -0.4040    -4.0620 hc         1 BHV       0.051533
     59 H10         11.8550     1.0470    -2.0280 hc         1 BHV       0.051533
     60 H11         11.3360     0.5500    -0.4160 hc         1 BHV       0.051533
     61 H12         12.4400    -0.4600    -1.3650 hc         1 BHV       0.051533
     62 H13         -2.0350     1.4210    -1.2760 hc         1 BHV       0.063700
     63 H14         -1.2230     1.5990    -2.8250 hc         1 BHV       0.063700
     64 H15         -2.6200    -0.4890    -2.6880 h1         1 BHV       0.052200
     65 H16         -0.9440    -0.7940    -3.0790 h1         1 BHV       0.052200
     66 H17          0.4020    -2.2680    -1.1010 h1         1 BHV       0.066200
     67 H18         -0.2600    -1.8070     0.4570 h1         1 BHV       0.066200
     68 H19          0.1670     3.3520    -2.3660 h1         1 BHV       0.066200
     69 H20          1.8020     3.6750    -1.8070 h1         1 BHV       0.066200
     70 H21         -0.7100     3.7470    -0.0480 hc         1 BHV       0.065700
     71 H22          1.0810     6.0230    -1.0360 h1         1 BHV       0.031200
     72 H23          1.1540     7.0830     1.2130 h1         1 BHV       0.041950
     73 H24          0.4060     5.6330     1.8890 h1         1 BHV       0.041950
     74 H25         -1.4880     6.8620     2.7400 h1         1 BHV       0.052200
     75 H26          0.0070     7.6230     3.3060 h1         1 BHV       0.052200
     76 H27         -1.9690     9.4890     0.3130 h1         1 BHV       0.052200
     77 H28         -2.6810     7.9890     0.9290 h1         1 BHV       0.052200
     78 H29         -1.6110     7.5480    -1.2040 h1         1 BHV       0.041950
     79 H30         -0.0910     8.2730    -0.6690 h1         1 BHV       0.041950
     80 H31         -4.1470    -0.9290    -1.3340 hc         1 BHV       0.057700
     81 H32         -3.7770    -2.3130    -2.3330 hc         1 BHV       0.057700
     82 H33         -4.5750    -3.7990    -0.4140 hc         1 BHV       0.070700
     83 H34         -4.5060    -2.1840     1.4460 hc         1 BHV       0.050450
     84 H35         -5.6390    -1.1300     0.6080 hc         1 BHV       0.050450
     85 H36         -6.1900    -3.9540     1.6290 h1         1 BHV       0.060700
     86 H37         -6.8220    -2.4630     2.3080 h1         1 BHV       0.060700
     87 H38         -8.1800    -3.6910    -1.4420 h1         1 BHV       0.060700
     88 H39         -6.9880    -4.6690    -0.6080 h1         1 BHV       0.060700
     89 H40         -6.5240    -1.8860    -1.7720 hc         1 BHV       0.050450
     90 H41         -5.9180    -3.4030    -2.4220 hc         1 BHV       0.050450
     91 H42        -10.6760    -0.0990     0.9120 hc         1 BHV       0.048700
     92 H43        -10.3750     0.0200    -0.8300 hc         1 BHV       0.048700
     93 H44        -12.0240    -0.0600    -0.2200 hc         1 BHV       0.048700
     94 H45        -12.8610    -2.3550     0.8160 hc         1 BHV       0.048700
     95 H46        -11.7330    -3.7040     0.8600 hc         1 BHV       0.048700
     96 H47        -11.4840    -2.3000     1.9100 hc         1 BHV       0.048700
     97 H48        -11.0400    -1.8940    -2.3680 hc         1 BHV       0.048700
     98 H49        -11.5700    -3.4370    -1.6810 hc         1 BHV       0.048700
     99 H50        -12.6300    -2.0300    -1.6190 hc         1 BHV       0.048700
    100 H51          6.8600    -1.0240    -0.7980 hn         1 BHV       0.318500
    101 H52          0.9350     4.0590     0.5010 hc         1 BHV       0.065700
    102 H53         -0.5030     5.6260    -1.6940 h1         1 BHV       0.031200
    103 C57          0.8240     3.3080    -1.4960 c3         1 BHV       0.083600
    104 C76         -2.4780    -2.1230    -0.6640 c          1 BHV       0.606100
    105 C95         -8.7920    -2.3740     0.7440 c          1 BHV       0.657100
@<TRIPOS>BOND
     1     1    11 1   
     2     1    39 1   
     3     1    50 1   
     4     1    51 1   
     5     2    10 2   
     6     2    12 1   
     7     2    13 1   
     8     3     5 ar  
     9     3     7 ar  
    10     3    52 1   
    11     4     6 ar  
    12     4    11 ar  
    13     4    53 1   
    14     5     6 ar  
    15     5    54 1   
    16     6    14 1   
    17     7     8 1   
    18     7    11 ar  
    19     8    36 1   
    20     8    37 1   
    21     8    38 1   
    22     9    10 1   
    23     9    39 1   
    24     9    45 2   
    25    10    55 1   
    26    12    56 1   
    27    12    57 1   
    28    12    58 1   
    29    13    59 1   
    30    13    60 1   
    31    13    61 1   
    32    14    15 1   
    33    14    41 2   
    34    15    16 2   
    35    15    19 1   
    36    16    17 1   
    37    16    40 1   
    38    17    18 1   
    39    17    62 1   
    40    17    63 1   
    41    18    42 1   
    42    18    64 1   
    43    18    65 1   
    44    19    42 1   
    45    19    66 1   
    46    19    67 1   
    47    20    21 1   
    48    20    70 1   
    49    20   101 1   
    50    20   103 1   
    51    21    43 1   
    52    21    71 1   
    53    21   102 1   
    54    22    23 1   
    55    22    43 1   
    56    22    72 1   
    57    22    73 1   
    58    23    46 1   
    59    23    74 1   
    60    23    75 1   
    61    24    25 1   
    62    24    46 1   
    63    24    76 1   
    64    24    77 1   
    65    25    43 1   
    66    25    78 1   
    67    25    79 1   
    68    26    27 1   
    69    26    80 1   
    70    26    81 1   
    71    26   104 1   
    72    27    28 1   
    73    27    31 1   
    74    27    82 1   
    75    28    29 1   
    76    28    83 1   
    77    28    84 1   
    78    29    44 1   
    79    29    85 1   
    80    29    86 1   
    81    30    31 1   
    82    30    44 1   
    83    30    87 1   
    84    30    88 1   
    85    31    89 1   
    86    31    90 1   
    87    32    35 1   
    88    32    91 1   
    89    32    92 1   
    90    32    93 1   
    91    33    35 1   
    92    33    94 1   
    93    33    95 1   
    94    33    96 1   
    95    34    35 1   
    96    34    97 1   
    97    34    98 1   
    98    34    99 1   
    99    35    49 1   
   100    39   100 1   
   101    40    41 1   
   102    40   103 1   
   103    42   104 1   
   104    44   105 1   
   105    47   104 2   
   106    48   105 2   
   107    49   105 1   
   108    68   103 1   
   109    69   103 1   
@<TRIPOS>SUBSTRUCTURE
     1 BHV         1 TEMP              0 ****  ****    0 ROOT
