@<TRIPOS>MOLECULE
BHW
  139   147     1     0     0
SMALL
No Charge or Current Charge


@<TRIPOS>ATOM
      1 C1         -13.2070    -1.0630     6.5900 c3         1 BHW      -0.033800
      2 C2         -14.0810    -0.3910     5.5670 cc         1 BHW      -0.137300
      3 C3         -15.0150     0.5950     5.7310 cd         1 BHW      -0.196000
      4 C4         -15.5840     0.9070     4.4810 cd         1 BHW      -0.085000
      5 C5         -15.0060     0.1140     3.5230 cc         1 BHW      -0.249600
      6 C6         -15.3450     0.1520     2.0850 c          1 BHW       0.651700
      7 C7         -14.6980    -0.7850    -0.1010 c6         1 BHW       0.150300
      8 N1         -14.0790    -0.6870     4.2020 na         1 BHW      -0.074000
      9 O2         -14.6210    -0.7520     1.3480 os         1 BHW      -0.469100
     10 O3         -12.1190    -1.6650    -1.1610 os         1 BHW      -0.471000
     11 O4         -14.9900    -2.3750    -1.9960 os         1 BHW      -0.441000
     12 O6          -5.1680    -0.9540    -0.0260 oh         1 BHW      -0.509100
     13 O1         -16.1960     0.8920     1.6120 o          1 BHW      -0.469000
     14 C8         -13.6840     0.1960    -0.7790 c6         1 BHW       0.141300
     15 C9         -12.2300    -0.3430    -0.5880 c6         1 BHW       0.369300
     16 C10        -12.9670    -2.6780    -0.5660 c6         1 BHW       0.209000
     17 C11        -14.4840    -2.2420    -0.6380 c6         1 BHW       0.140300
     18 C12        -16.4160    -2.3360    -2.1950 c3         1 BHW       0.137900
     19 C13        -12.4620    -2.9710     0.8860 c3         1 BHW      -0.098600
     20 C14        -12.7040    -3.9720    -1.3910 c3         1 BHW      -0.098600
     21 O5         -11.3000     0.5350    -1.2510 os         1 BHW      -0.340100
     22 C15         -9.9310     0.3700    -1.1310 ca         1 BHW       0.206100
     23 C16         -9.0890     1.1680    -1.9350 ca         1 BHW      -0.137300
     24 C17         -7.6880     1.0410    -1.8090 ca         1 BHW       0.225100
     25 C18         -7.1160     0.1290    -0.9100 ca         1 BHW      -0.199800
     26 C19         -7.9670    -0.6660    -0.1140 ca         1 BHW      -0.001000
     27 C20         -9.3600    -0.5430    -0.2200 ca         1 BHW      -0.215000
     28 C21         -5.6620     0.0130    -0.8220 cc         1 BHW       0.285900
     29 C22         -4.8720     0.8280    -1.6070 cd         1 BHW      -0.264600
     30 C23         -5.5160     1.8380    -2.5140 c          1 BHW       0.694300
     31 O7          -6.8780     1.8400    -2.5670 os         1 BHW      -0.337200
     32 O8          -4.8810     2.6620    -3.1580 o          1 BHW      -0.488000
     33 N2          -3.4660     0.7290    -1.4840 ns         1 BHW      -0.422100
     34 C24         -2.5010     0.7870    -2.4810 c          1 BHW       0.639700
     35 O9          -2.7930     0.7850    -3.6680 o          1 BHW      -0.560100
     36 C25         -1.1040     0.8030    -1.9480 cc         1 BHW      -0.245600
     37 C26         -0.7830     0.8450    -0.6130 cd         1 BHW      -0.136000
     38 N3           0.6060     0.8790    -0.5390 na         1 BHW      -0.088000
     39 C27          1.1650     0.8560    -1.8330 cd         1 BHW      -0.272600
     40 C28          0.0980     0.7990    -2.7160 cc         1 BHW       0.020700
     41 C29          0.1050     0.7360    -4.2300 c3         1 BHW      -0.037800
     42 C30          2.6180     0.9160    -2.1940 c          1 BHW       0.635700
     43 O10          3.0490     0.9860    -3.3340 o          1 BHW      -0.543100
     44 N4           3.4600     0.8450    -1.0900 ns         1 BHW      -0.425100
     45 C31          4.8680     1.0270    -1.0480 cc         1 BHW      -0.271600
     46 C32          5.4830     2.1830    -1.7790 c          1 BHW       0.694300
     47 O11          6.8440     2.3020    -1.6970 os         1 BHW      -0.335200
     48 C33          7.6660     1.4970    -0.9500 ca         1 BHW       0.224100
     49 C34          7.1170     0.4350    -0.2180 ca         1 BHW      -0.199800
     50 C35          5.6740     0.2110    -0.2910 cd         1 BHW       0.289900
     51 O12          5.1770    -0.8640     0.3510 oh         1 BHW      -0.506100
     52 C36          7.9660    -0.3880     0.5480 ca         1 BHW      -0.001000
     53 C37          9.3480    -0.1470     0.5710 ca         1 BHW      -0.214000
     54 C38          9.9010     0.9240    -0.1620 ca         1 BHW       0.203100
     55 C39          9.0540     1.7560    -0.9280 ca         1 BHW      -0.135300
     56 C40          9.6450     2.9200    -1.7310 c3         1 BHW      -0.028800
     57 O13         11.2600     1.1820    -0.1810 os         1 BHW      -0.340100
     58 O14          4.8350     3.0190    -2.3940 o          1 BHW      -0.485000
     59 C41         -9.6950     2.1730    -2.9210 c3         1 BHW      -0.028800
     60 O15        -13.8190     1.5560    -0.2930 oh         1 BHW      -0.704000
     61 C42         12.1760     0.4870     0.6860 c6         1 BHW       0.370300
     62 C43         13.6430     0.8740     0.3160 c6         1 BHW       0.140300
     63 C44         14.6360     0.1570     1.2910 c6         1 BHW       0.151300
     64 C45         14.2530     0.4690     2.7790 c6         1 BHW       0.140300
     65 C46         12.7200     0.2070     3.0590 c6         1 BHW       0.209000
     66 O16         11.9030     0.8600     2.0560 os         1 BHW      -0.473000
     67 C47         12.3370    -1.3090     3.1120 c3         1 BHW      -0.098600
     68 C48         12.2730     0.8220     4.4180 c3         1 BHW      -0.098600
     69 O17         14.6110     1.8340     3.1330 os         1 BHW      -0.443000
     70 O18         13.9360     0.5920    -1.0770 oh         1 BHW      -0.704000
     71 O19         14.7030    -1.2750     1.0640 os         1 BHW      -0.470100
     72 C49         16.0110     2.1580     3.2540 c3         1 BHW       0.136900
     73 C50         15.5670    -1.8160     0.1450 c          1 BHW       0.652700
     74 C51         15.3680    -3.2700    -0.0350 cc         1 BHW      -0.251600
     75 O20         16.4250    -1.1750    -0.4450 o          1 BHW      -0.470000
     76 C52         16.0990    -4.0560    -0.8870 cd         1 BHW      -0.084000
     77 N5          14.4500    -4.1290     0.5820 na         1 BHW      -0.073000
     78 C53         14.6090    -5.4350     0.1130 cc         1 BHW      -0.136300
     79 C54         15.6320    -5.3820    -0.7940 cd         1 BHW      -0.196000
     80 C55         13.7880    -6.6120     0.5630 c3         1 BHW      -0.033800
     81 H1         -13.4040    -2.1410     6.6250 hc         1 BHW       0.049700
     82 H2         -12.1460    -0.9180     6.3550 hc         1 BHW       0.049700
     83 H3         -13.3880    -0.6560     7.5920 hc         1 BHW       0.049700
     84 H4         -15.2760     1.0640     6.6760 ha         1 BHW       0.137000
     85 H5         -16.3540     1.6540     4.3040 ha         1 BHW       0.148000
     86 H6         -15.7100    -0.4730    -0.3880 h1         1 BHW       0.094700
     87 H7         -13.4900    -1.3880     3.7620 hn         1 BHW       0.352000
     88 H8          -4.2620    -1.1290    -0.3490 ho         1 BHW       0.494000
     89 H9         -13.8890     0.1760    -1.8600 h1         1 BHW       0.076700
     90 H10        -11.9970    -0.3610     0.4860 h2         1 BHW       0.047700
     91 H11        -15.0610    -2.9320    -0.0060 h1         1 BHW       0.059700
     92 H12        -16.6580    -2.5650    -3.2400 h1         1 BHW       0.036367
     93 H13        -16.9190    -3.0770    -1.5600 h1         1 BHW       0.036367
     94 H14        -16.8280    -1.3450    -1.9690 h1         1 BHW       0.036367
     95 H15        -12.5440    -2.1130     1.5600 hc         1 BHW       0.048700
     96 H16        -13.0350    -3.7880     1.3400 hc         1 BHW       0.048700
     97 H17        -11.4080    -3.2750     0.8850 hc         1 BHW       0.048700
     98 H18        -11.6610    -4.2980    -1.3050 hc         1 BHW       0.048700
     99 H19        -13.3390    -4.7980    -1.0490 hc         1 BHW       0.048700
    100 H20        -12.9050    -3.8190    -2.4580 hc         1 BHW       0.048700
    101 H21         -7.5600    -1.3820     0.5970 ha         1 BHW       0.130000
    102 H22         -9.9760    -1.1680     0.4170 ha         1 BHW       0.130000
    103 H24         -1.4040     0.8760     0.2770 h4         1 BHW       0.147000
    104 H25          1.1200     0.9510     0.3340 hn         1 BHW       0.348000
    105 H26         -0.5610    -0.0550    -4.5910 hc         1 BHW       0.062700
    106 H27         -0.2290     1.6870    -4.6590 hc         1 BHW       0.062700
    107 H28          1.0860     0.5060    -4.6510 hc         1 BHW       0.062700
    108 H29          2.9830     0.5960    -0.2330 hn         1 BHW       0.310500
    109 H30          4.3140    -1.0500    -0.0700 ho         1 BHW       0.491000
    110 H31          7.5670    -1.2210     1.1240 ha         1 BHW       0.131000
    111 H32          9.9690    -0.8070     1.1670 ha         1 BHW       0.135000
    112 H33         10.0410     2.5680    -2.6910 hc         1 BHW       0.051700
    113 H34          8.9070     3.7010    -1.9430 hc         1 BHW       0.051700
    114 H35         10.4650     3.4080    -1.1910 hc         1 BHW       0.051700
    115 H36         -9.9310     3.1180    -2.4180 hc         1 BHW       0.051033
    116 H37         -9.0200     2.3990    -3.7540 hc         1 BHW       0.051033
    117 H38        -10.6210     1.7940    -3.3700 hc         1 BHW       0.051033
    118 H39        -13.0930     2.0780    -0.7090 ho         1 BHW       0.522000
    119 H40         12.0480    -0.5950     0.5440 h2         1 BHW       0.049700
    120 H41         13.7390     1.9560     0.4940 h1         1 BHW       0.076700
    121 H42         15.6370     0.5700     1.1150 h1         1 BHW       0.095700
    122 H43         14.8310    -0.2010     3.4320 h1         1 BHW       0.060700
    123 H44         12.8840    -1.8200     3.9140 hc         1 BHW       0.048700
    124 H45         11.2670    -1.4400     3.3150 hc         1 BHW       0.048700
    125 H46         12.5530    -1.8490     2.1870 hc         1 BHW       0.048700
    126 H47         12.3810     1.9130     4.4230 hc         1 BHW       0.048700
    127 H48         11.2200     0.6030     4.6310 hc         1 BHW       0.048700
    128 H49         12.8700     0.4260     5.2480 hc         1 BHW       0.048700
    129 H50         13.2190     1.0140    -1.6070 ho         1 BHW       0.522000
    130 H51         16.5110     1.4730     3.9510 h1         1 BHW       0.037367
    131 H52         16.5210     2.1060     2.2840 h1         1 BHW       0.037367
    132 H53         16.1300     3.1790     3.6370 h1         1 BHW       0.037367
    133 H54         16.9070    -3.7130    -1.5300 ha         1 BHW       0.148000
    134 H55         13.7660    -3.8410     1.2750 hn         1 BHW       0.352000
    135 H56         16.0210    -6.2270    -1.3540 ha         1 BHW       0.137000
    136 H57         12.7240    -6.4520     0.3500 hc         1 BHW       0.050367
    137 H58         14.0990    -7.5290     0.0490 hc         1 BHW       0.050367
    138 H59         13.8980    -6.7770     1.6410 hc         1 BHW       0.050367
    139 H23         -3.0600     0.5880    -0.5660 hn         1 BHW       0.312500
@<TRIPOS>BOND
     1     1     2 1   
     2     1    81 1   
     3     1    82 1   
     4     1    83 1   
     5     2     3 2   
     6     2     8 1   
     7     3     4 1   
     8     3    84 1   
     9     4     5 2   
    10     4    85 1   
    11     5     6 1   
    12     5     8 1   
    13     6     9 1   
    14     6    13 2   
    15     7     9 1   
    16     7    14 1   
    17     7    17 1   
    18     7    86 1   
    19     8    87 1   
    20    10    15 1   
    21    10    16 1   
    22    11    17 1   
    23    11    18 1   
    24    12    28 1   
    25    12    88 1   
    26    14    15 1   
    27    14    60 1   
    28    14    89 1   
    29    15    21 1   
    30    15    90 1   
    31    16    17 1   
    32    16    19 1   
    33    16    20 1   
    34    17    91 1   
    35    18    92 1   
    36    18    93 1   
    37    18    94 1   
    38    19    95 1   
    39    19    96 1   
    40    19    97 1   
    41    20    98 1   
    42    20    99 1   
    43    20   100 1   
    44    21    22 1   
    45    22    23 ar  
    46    22    27 ar  
    47    23    24 ar  
    48    23    59 1   
    49    24    25 ar  
    50    24    31 1   
    51    25    26 ar  
    52    25    28 1   
    53    26    27 ar  
    54    26   101 1   
    55    27   102 1   
    56    28    29 2   
    57    29    30 1   
    58    29    33 1   
    59    30    31 1   
    60    30    32 2   
    61    33    34 1   
    62    33   139 1   
    63    34    35 2   
    64    34    36 1   
    65    36    37 2   
    66    36    40 1   
    67    37    38 1   
    68    37   103 1   
    69    38    39 1   
    70    38   104 1   
    71    39    40 2   
    72    39    42 1   
    73    40    41 1   
    74    41   105 1   
    75    41   106 1   
    76    41   107 1   
    77    42    43 2   
    78    42    44 1   
    79    44    45 1   
    80    44   108 1   
    81    45    46 1   
    82    45    50 2   
    83    46    47 1   
    84    46    58 2   
    85    47    48 1   
    86    48    49 ar  
    87    48    55 ar  
    88    49    50 1   
    89    49    52 ar  
    90    50    51 1   
    91    51   109 1   
    92    52    53 ar  
    93    52   110 1   
    94    53    54 ar  
    95    53   111 1   
    96    54    55 ar  
    97    54    57 1   
    98    55    56 1   
    99    56   112 1   
   100    56   113 1   
   101    56   114 1   
   102    57    61 1   
   103    59   115 1   
   104    59   116 1   
   105    59   117 1   
   106    60   118 1   
   107    61    62 1   
   108    61    66 1   
   109    61   119 1   
   110    62    63 1   
   111    62    70 1   
   112    62   120 1   
   113    63    64 1   
   114    63    71 1   
   115    63   121 1   
   116    64    65 1   
   117    64    69 1   
   118    64   122 1   
   119    65    66 1   
   120    65    67 1   
   121    65    68 1   
   122    67   123 1   
   123    67   124 1   
   124    67   125 1   
   125    68   126 1   
   126    68   127 1   
   127    68   128 1   
   128    69    72 1   
   129    70   129 1   
   130    71    73 1   
   131    72   130 1   
   132    72   131 1   
   133    72   132 1   
   134    73    74 1   
   135    73    75 2   
   136    74    76 2   
   137    74    77 1   
   138    76    79 1   
   139    76   133 1   
   140    77    78 1   
   141    77   134 1   
   142    78    79 2   
   143    78    80 1   
   144    79   135 1   
   145    80   136 1   
   146    80   137 1   
   147    80   138 1   
@<TRIPOS>SUBSTRUCTURE
     1 BHW         1 TEMP              0 ****  ****    0 ROOT
