@<TRIPOS>MOLECULE
BHW
  139   147     1     0     0
SMALL
abcg2


@<TRIPOS>ATOM
      1 C1         -14.5220    -0.4780     5.3090 c3         1 BHW      -0.033800
      2 C2         -15.2730    -0.0640     4.0950 cc         1 BHW      -0.137300
      3 C3         -16.4580     0.6430     3.9740 cd         1 BHW      -0.196000
      4 C4         -16.7470     0.7570     2.6050 cd         1 BHW      -0.085000
      5 C5         -15.7350     0.1170     1.9180 cc         1 BHW      -0.249600
      6 C6         -15.5920    -0.0380     0.4860 c          1 BHW       0.651700
      7 C7         -14.1760    -0.9610    -1.2020 c6         1 BHW       0.150300
      8 N1         -14.8550    -0.3720     2.8490 na         1 BHW      -0.074000
      9 O2         -14.5080    -0.7600     0.1690 os         1 BHW      -0.469100
     10 O3         -11.4990    -1.9520    -1.2660 os         1 BHW      -0.471000
     11 O4         -13.8550    -2.6530    -2.8370 os         1 BHW      -0.441000
     12 O6          -5.2360    -0.5270     1.7820 oh         1 BHW      -0.509100
     13 O1         -16.3700     0.4120    -0.3220 o          1 BHW      -0.469000
     14 C8         -12.9850    -0.0850    -1.5670 c6         1 BHW       0.141300
     15 C9         -11.7210    -0.6250    -0.9040 c6         1 BHW       0.369300
     16 C10        -12.5040    -2.8910    -0.8740 c6         1 BHW       0.209000
     17 C11        -13.8670    -2.4480    -1.4470 c6         1 BHW       0.140300
     18 C12        -15.1200    -2.8970    -3.4060 c3         1 BHW       0.137900
     19 C13        -12.5520    -3.0550     0.6470 c3         1 BHW      -0.098600
     20 C14        -12.0740    -4.2230    -1.4780 c3         1 BHW      -0.098600
     21 O5         -10.6540     0.1200    -1.4180 os         1 BHW      -0.340100
     22 C15         -9.4400     0.0830    -0.8340 ca         1 BHW       0.206100
     23 C16         -8.4900     0.9250    -1.4190 ca         1 BHW      -0.137300
     24 C17         -7.2210     0.9350    -0.8500 ca         1 BHW       0.225100
     25 C18         -6.8880     0.1480     0.2550 ca         1 BHW      -0.199800
     26 C19         -7.8650    -0.6790     0.8060 ca         1 BHW      -0.001000
     27 C20         -9.1310    -0.7230     0.2670 ca         1 BHW      -0.215000
     28 C21         -5.5400     0.2310     0.7480 cc         1 BHW       0.285900
     29 C22         -4.6420     1.0620     0.1500 cd         1 BHW      -0.264600
     30 C23         -5.0140     1.8550    -0.9880 c          1 BHW       0.694300
     31 O7          -6.3020     1.7500    -1.4150 os         1 BHW      -0.337200
     32 O8          -4.2910     2.6070    -1.5940 o          1 BHW      -0.488000
     33 N2          -3.3150     1.1170     0.6130 ns         1 BHW      -0.422100
     34 C24         -2.3300     0.4530    -0.0790 c          1 BHW       0.639700
     35 O9          -2.6010    -0.3160    -0.9830 o          1 BHW      -0.560100
     36 C25         -0.9600     0.7080     0.3710 cc         1 BHW      -0.245600
     37 C26         -0.5820     1.2540     1.5850 cd         1 BHW      -0.136000
     38 N3           0.7530     1.3130     1.6180 na         1 BHW      -0.088000
     39 C27          1.2790     0.7990     0.4560 cd         1 BHW      -0.272600
     40 C28          0.2290     0.4060    -0.3520 cc         1 BHW       0.020700
     41 C29          0.3110    -0.1580    -1.7300 c3         1 BHW      -0.037800
     42 C30          2.7180     0.7450     0.1950 c          1 BHW       0.635700
     43 O10          3.2140    -0.0220    -0.6090 o          1 BHW      -0.543100
     44 N4           3.4900     1.6030     0.9440 ns         1 BHW      -0.425100
     45 C31          4.8640     1.7080     0.6580 cc         1 BHW      -0.271600
     46 C32          5.2770     2.4680    -0.4890 c          1 BHW       0.694300
     47 O11          6.6130     2.5220    -0.7400 os         1 BHW      -0.335200
     48 C33          7.5470     1.8860     0.0020 ca         1 BHW       0.224100
     49 C34          7.1760     1.1300     1.1170 ca         1 BHW      -0.199800
     50 C35          5.7750     1.0560     1.4330 cd         1 BHW       0.289900
     51 O12          5.4390     0.3360     2.4840 oh         1 BHW      -0.506100
     52 C36          8.1700     0.4930     1.8570 ca         1 BHW      -0.001000
     53 C37          9.4920     0.6050     1.4900 ca         1 BHW      -0.214000
     54 C38          9.8350     1.3550     0.3620 ca         1 BHW       0.203100
     55 C39          8.8710     2.0170    -0.4040 ca         1 BHW      -0.135300
     56 C40          9.2780     2.8140    -1.6060 c3         1 BHW      -0.028800
     57 O13         11.1030     1.5080    -0.0700 os         1 BHW      -0.340100
     58 O14          4.5470     3.0640    -1.2420 o          1 BHW      -0.485000
     59 C41         -8.8570     1.7720    -2.6000 c3         1 BHW      -0.028800
     60 O15        -13.2670     1.2270    -1.1750 oh         1 BHW      -0.704000
     61 C42         12.1100     0.6330     0.3550 c6         1 BHW       0.370300
     62 C43         13.2210     0.7020    -0.6870 c6         1 BHW       0.140300
     63 C44         14.4210    -0.1100    -0.2140 c6         1 BHW       0.151300
     64 C45         14.8190     0.2810     1.2180 c6         1 BHW       0.140300
     65 C46         13.6230     0.3480     2.1920 c6         1 BHW       0.209000
     66 O16         12.5600     1.0930     1.5910 os         1 BHW      -0.473000
     67 C47         13.1530    -1.0480     2.6110 c3         1 BHW      -0.098600
     68 C48         13.9990     1.1180     3.4520 c3         1 BHW      -0.098600
     69 O17         15.4170     1.5520     1.1530 os         1 BHW      -0.443000
     70 O18         12.8100     0.1980    -1.9260 oh         1 BHW      -0.704000
     71 O19         14.0940    -1.4960    -0.2630 os         1 BHW      -0.470100
     72 C49         16.7960     1.5340     0.8620 c3         1 BHW       0.136900
     73 C50         14.5980    -2.2550    -1.2470 c          1 BHW       0.652700
     74 C51         14.0590    -3.5980    -1.2200 cc         1 BHW      -0.251600
     75 O20         15.4170    -1.8730    -2.0490 o          1 BHW      -0.470000
     76 C52         14.4020    -4.6660    -2.0260 cd         1 BHW      -0.084000
     77 N5          13.0930    -4.0350    -0.3520 na         1 BHW      -0.073000
     78 C53         12.8120    -5.3350    -0.5800 cc         1 BHW      -0.136300
     79 C54         13.6200    -5.7600    -1.6220 cd         1 BHW      -0.196000
     80 C55         11.7820    -6.0740     0.1970 c3         1 BHW      -0.033800
     81 H1         -14.5500    -1.5610     5.4480 hc         1 BHW       0.049700
     82 H2         -13.4740    -0.1830     5.2540 hc         1 BHW       0.049700
     83 H3         -14.9560    -0.0180     6.1940 hc         1 BHW       0.049700
     84 H4         -17.0420     1.0260     4.7960 ha         1 BHW       0.137000
     85 H5         -17.5980     1.2450     2.1580 ha         1 BHW       0.148000
     86 H6         -15.0290    -0.6700    -1.8190 h1         1 BHW       0.094700
     87 H7         -14.0080    -0.8750     2.6410 hn         1 BHW       0.352000
     88 H8          -4.3100    -0.3820     2.0340 ho         1 BHW       0.494000
     89 H9         -12.8480    -0.1700    -2.6540 h1         1 BHW       0.076700
     90 H10        -11.7780    -0.4910     0.1860 h2         1 BHW       0.047700
     91 H11        -14.6520    -3.0540    -0.9710 h1         1 BHW       0.059700
     92 H12        -14.9700    -3.0980    -4.4650 h1         1 BHW       0.036367
     93 H13        -15.6080    -3.7650    -2.9510 h1         1 BHW       0.036367
     94 H14        -15.7990    -2.0420    -3.3180 h1         1 BHW       0.036367
     95 H15        -12.8170    -2.1500     1.1870 hc         1 BHW       0.048700
     96 H16        -13.2840    -3.8160     0.9160 hc         1 BHW       0.048700
     97 H17        -11.5790    -3.3840     1.0130 hc         1 BHW       0.048700
     98 H18        -11.1640    -4.5740    -0.9900 hc         1 BHW       0.048700
     99 H19        -12.8460    -4.9750    -1.3190 hc         1 BHW       0.048700
    100 H20        -11.8840    -4.1490    -2.5460 hc         1 BHW       0.048700
    101 H21         -7.6350    -1.3020     1.6590 ha         1 BHW       0.130000
    102 H22         -9.8580    -1.3900     0.7060 ha         1 BHW       0.130000
    103 H24         -1.1670     1.5700     2.4340 h4         1 BHW       0.147000
    104 H25          1.2770     1.5940     2.4320 hn         1 BHW       0.348000
    105 H26          0.0760    -1.2230    -1.7340 hc         1 BHW       0.062700
    106 H27         -0.4030     0.3260    -2.3940 hc         1 BHW       0.062700
    107 H28          1.3060    -0.0380    -2.1500 hc         1 BHW       0.062700
    108 H29          3.0460     2.4190     1.3410 hn         1 BHW       0.310500
    109 H30          4.4800     0.3820     2.6220 ho         1 BHW       0.491000
    110 H31          7.9130    -0.0870     2.7320 ha         1 BHW       0.131000
    111 H32         10.2450     0.1270     2.1000 ha         1 BHW       0.135000
    112 H33          9.8240     2.1950    -2.3190 hc         1 BHW       0.051700
    113 H34          8.4240     3.2380    -2.1270 hc         1 BHW       0.051700
    114 H35          9.9360     3.6380    -1.3270 hc         1 BHW       0.051700
    115 H36         -9.5870     2.5360    -2.3240 hc         1 BHW       0.051033
    116 H37         -7.9960     2.2800    -3.0240 hc         1 BHW       0.051033
    117 H38         -9.3070     1.1700    -3.3900 hc         1 BHW       0.051033
    118 H39        -12.6070     1.8140    -1.5580 ho         1 BHW       0.522000
    119 H40         11.7070    -0.3900     0.4140 h2         1 BHW       0.049700
    120 H41         13.5500     1.7480    -0.7560 h1         1 BHW       0.076700
    121 H42         15.2640     0.0800    -0.8820 h1         1 BHW       0.095700
    122 H43         15.5300    -0.4620     1.6080 h1         1 BHW       0.060700
    123 H44         13.9750    -1.6010     3.0650 hc         1 BHW       0.048700
    124 H45         12.3610    -0.9600     3.3540 hc         1 BHW       0.048700
    125 H46         12.7700    -1.6560     1.7950 hc         1 BHW       0.048700
    126 H47         14.2330     2.1600     3.2470 hc         1 BHW       0.048700
    127 H48         13.1750     1.0840     4.1650 hc         1 BHW       0.048700
    128 H49         14.8670     0.6610     3.9280 hc         1 BHW       0.048700
    129 H50         12.1810     0.8120    -2.3170 ho         1 BHW       0.522000
    130 H51         17.3580     0.9560     1.6030 h1         1 BHW       0.037367
    131 H52         17.0170     1.1240    -0.1290 h1         1 BHW       0.037367
    132 H53         17.1480     2.5640     0.8850 h1         1 BHW       0.037367
    133 H54         15.1410    -4.6480    -2.8110 ha         1 BHW       0.148000
    134 H55         12.6400    -3.4690     0.3470 hn         1 BHW       0.352000
    135 H56         13.6340    -6.7560    -2.0350 ha         1 BHW       0.137000
    136 H57         10.7750    -5.7340    -0.0510 hc         1 BHW       0.050367
    137 H58         11.8370    -7.1380    -0.0240 hc         1 BHW       0.050367
    138 H59         11.9170    -5.9440     1.2710 hc         1 BHW       0.050367
    139 H23         -3.0500     1.9280     1.1540 hn         1 BHW       0.312500
@<TRIPOS>BOND
     1     1     2 1   
     2     1    81 1   
     3     1    82 1   
     4     1    83 1   
     5     2     3 2   
     6     2     8 1   
     7     3     4 1   
     8     3    84 1   
     9     4     5 2   
    10     4    85 1   
    11     5     6 1   
    12     5     8 1   
    13     6     9 1   
    14     6    13 2   
    15     7     9 1   
    16     7    14 1   
    17     7    17 1   
    18     7    86 1   
    19     8    87 1   
    20    10    15 1   
    21    10    16 1   
    22    11    17 1   
    23    11    18 1   
    24    12    28 1   
    25    12    88 1   
    26    14    15 1   
    27    14    60 1   
    28    14    89 1   
    29    15    21 1   
    30    15    90 1   
    31    16    17 1   
    32    16    19 1   
    33    16    20 1   
    34    17    91 1   
    35    18    92 1   
    36    18    93 1   
    37    18    94 1   
    38    19    95 1   
    39    19    96 1   
    40    19    97 1   
    41    20    98 1   
    42    20    99 1   
    43    20   100 1   
    44    21    22 1   
    45    22    23 ar  
    46    22    27 ar  
    47    23    24 ar  
    48    23    59 1   
    49    24    25 ar  
    50    24    31 1   
    51    25    26 ar  
    52    25    28 1   
    53    26    27 ar  
    54    26   101 1   
    55    27   102 1   
    56    28    29 2   
    57    29    30 1   
    58    29    33 1   
    59    30    31 1   
    60    30    32 2   
    61    33    34 1   
    62    33   139 1   
    63    34    35 2   
    64    34    36 1   
    65    36    37 2   
    66    36    40 1   
    67    37    38 1   
    68    37   103 1   
    69    38    39 1   
    70    38   104 1   
    71    39    40 2   
    72    39    42 1   
    73    40    41 1   
    74    41   105 1   
    75    41   106 1   
    76    41   107 1   
    77    42    43 2   
    78    42    44 1   
    79    44    45 1   
    80    44   108 1   
    81    45    46 1   
    82    45    50 2   
    83    46    47 1   
    84    46    58 2   
    85    47    48 1   
    86    48    49 ar  
    87    48    55 ar  
    88    49    50 1   
    89    49    52 ar  
    90    50    51 1   
    91    51   109 1   
    92    52    53 ar  
    93    52   110 1   
    94    53    54 ar  
    95    53   111 1   
    96    54    55 ar  
    97    54    57 1   
    98    55    56 1   
    99    56   112 1   
   100    56   113 1   
   101    56   114 1   
   102    57    61 1   
   103    59   115 1   
   104    59   116 1   
   105    59   117 1   
   106    60   118 1   
   107    61    62 1   
   108    61    66 1   
   109    61   119 1   
   110    62    63 1   
   111    62    70 1   
   112    62   120 1   
   113    63    64 1   
   114    63    71 1   
   115    63   121 1   
   116    64    65 1   
   117    64    69 1   
   118    64   122 1   
   119    65    66 1   
   120    65    67 1   
   121    65    68 1   
   122    67   123 1   
   123    67   124 1   
   124    67   125 1   
   125    68   126 1   
   126    68   127 1   
   127    68   128 1   
   128    69    72 1   
   129    70   129 1   
   130    71    73 1   
   131    72   130 1   
   132    72   131 1   
   133    72   132 1   
   134    73    74 1   
   135    73    75 2   
   136    74    76 2   
   137    74    77 1   
   138    76    79 1   
   139    76   133 1   
   140    77    78 1   
   141    77   134 1   
   142    78    79 2   
   143    78    80 1   
   144    79   135 1   
   145    80   136 1   
   146    80   137 1   
   147    80   138 1   
@<TRIPOS>SUBSTRUCTURE
     1 BHW         1 TEMP              0 ****  ****    0 ROOT
