@<TRIPOS>MOLECULE
BHY
   56    57     1     0     0
SMALL
No Charge or Current Charge


@<TRIPOS>ATOM
      1 N1          -7.2020     0.2190    -0.3610 n7         1 BHY      -0.873800
      2 C2          -2.6570    -0.6080    -1.6340 ca         1 BHY      -0.105500
      3 N2           7.1870     0.2270     0.3600 n7         1 BHY      -0.873800
      4 C4          -0.7450    -0.9720    -0.1310 cp         1 BHY      -0.031000
      5 O4          -9.4960     1.1780    -0.0890 o          1 BHY      -0.528250
      6 C6          -3.0500    -1.3380     0.6460 ca         1 BHY      -0.105500
      7 C7           3.5450    -0.9710     0.6090 ca         1 BHY      -0.085300
      8 C1          -3.5590    -0.9730    -0.6160 ca         1 BHY      -0.085300
      9 O1           9.4790     1.1900     0.0930 o          1 BHY      -0.528250
     10 S1           8.1380     1.3030    -0.4820 s6         1 BHY       1.195100
     11 O2           7.9180     1.0370    -1.9050 o          1 BHY      -0.528250
     12 S2          -8.1550     1.2900     0.4850 s6         1 BHY       1.195100
     13 C3          -1.2720    -0.6080    -1.3940 ca         1 BHY      -0.098500
     14 O3          -7.9340     1.0190     1.9070 o          1 BHY      -0.528250
     15 C5          -1.6650    -1.3370     0.8840 ca         1 BHY      -0.098500
     16 C8           2.6430    -0.6120     1.6290 ca         1 BHY      -0.105500
     17 C9           1.2580    -0.6130     1.3890 ca         1 BHY      -0.098500
     18 C10          0.7310    -0.9720     0.1240 cp         1 BHY      -0.031000
     19 C11          1.6510    -1.3310    -0.8920 ca         1 BHY      -0.098500
     20 C12          3.0360    -1.3320    -0.6540 ca         1 BHY      -0.105500
     21 C13          5.0530    -0.9660     0.8770 c3         1 BHY      -0.011400
     22 C14         -5.0670    -0.9680    -0.8840 c3         1 BHY      -0.011400
     23 C15         -5.7870     0.0600     0.0280 c3         1 BHY       0.203300
     24 C16         -5.6550    -2.3950    -0.7570 c3         1 BHY      -0.080100
     25 C17          5.6430    -2.3910     0.7440 c3         1 BHY      -0.080100
     26 C18          5.7720     0.0670    -0.0300 c3         1 BHY       0.203300
     27 C19          7.4260     2.8790    -0.0490 c3         1 BHY      -0.387100
     28 C20         -7.4450     2.8690     0.0590 c3         1 BHY      -0.387100
     29 HN1         -7.2400     0.6240    -1.2950 hn         1 BHY       0.479000
     30 H2          -3.0260    -0.3190    -2.6160 ha         1 BHY       0.115000
     31 HN2          7.2240     0.6280     1.2950 hn         1 BHY       0.479000
     32 H6          -3.7250    -1.6280     1.4480 ha         1 BHY       0.115000
     33 H3          -0.6020    -0.3080    -2.1960 ha         1 BHY       0.116500
     34 H5          -1.3010    -1.6370     1.8630 ha         1 BHY       0.116500
     35 H8           3.0110    -0.3270     2.6120 ha         1 BHY       0.115000
     36 H9           0.5880    -0.3170     2.1920 ha         1 BHY       0.116500
     37 H11          1.2880    -1.6270    -1.8730 ha         1 BHY       0.116500
     38 H12          3.7110    -1.6180    -1.4570 ha         1 BHY       0.115000
     39 H13          5.2190    -0.6510     1.9150 hc         1 BHY       0.050200
     40 H14         -5.2340    -0.6480    -1.9200 hc         1 BHY       0.050200
     41 H15         -5.2530     1.0170    -0.0440 h1         1 BHY       0.054200
     42 H15A        -5.7110    -0.2800     1.0700 h1         1 BHY       0.054200
     43 H16         -5.5910    -2.7590     0.2750 hc         1 BHY       0.043700
     44 H16A        -6.7090    -2.4140    -1.0600 hc         1 BHY       0.043700
     45 H16B        -5.1070    -3.0930    -1.4020 hc         1 BHY       0.043700
     46 H17          6.6960    -2.4100     1.0470 hc         1 BHY       0.043700
     47 H17A         5.0960    -3.0930     1.3860 hc         1 BHY       0.043700
     48 H17B         5.5790    -2.7510    -0.2900 hc         1 BHY       0.043700
     49 H18          5.2360     1.0230     0.0460 h1         1 BHY       0.054200
     50 H18A         5.6960    -0.2680    -1.0740 h1         1 BHY       0.054200
     51 H19          7.4620     2.9840     1.0400 h1         1 BHY       0.100700
     52 H19A         8.0320     3.6500    -0.5350 h1         1 BHY       0.100700
     53 H19B         6.3970     2.9040    -0.4230 h1         1 BHY       0.100700
     54 H20         -7.4820     2.9790    -1.0300 h1         1 BHY       0.100700
     55 H20A        -8.0530     3.6370     0.5490 h1         1 BHY       0.100700
     56 H20B        -6.4160     2.8950     0.4320 h1         1 BHY       0.100700
@<TRIPOS>BOND
     1     1    12 1   
     2     1    23 1   
     3     1    29 1   
     4     2     8 ar  
     5     2    13 ar  
     6     2    30 1   
     7     3    10 1   
     8     3    26 1   
     9     3    31 1   
    10     4    13 ar  
    11     4    15 ar  
    12     4    18 1   
    13     5    12 2   
    14     6     8 ar  
    15     6    15 ar  
    16     6    32 1   
    17     7    16 ar  
    18     7    20 ar  
    19     7    21 1   
    20     8    22 1   
    21     9    10 2   
    22    10    11 2   
    23    10    27 1   
    24    12    14 2   
    25    12    28 1   
    26    13    33 1   
    27    15    34 1   
    28    16    17 ar  
    29    16    35 1   
    30    17    18 ar  
    31    17    36 1   
    32    18    19 ar  
    33    19    20 ar  
    34    19    37 1   
    35    20    38 1   
    36    21    25 1   
    37    21    26 1   
    38    21    39 1   
    39    22    23 1   
    40    22    24 1   
    41    22    40 1   
    42    23    41 1   
    43    23    42 1   
    44    24    43 1   
    45    24    44 1   
    46    24    45 1   
    47    25    46 1   
    48    25    47 1   
    49    25    48 1   
    50    26    49 1   
    51    26    50 1   
    52    27    51 1   
    53    27    52 1   
    54    27    53 1   
    55    28    54 1   
    56    28    55 1   
    57    28    56 1   
@<TRIPOS>SUBSTRUCTURE
     1 BHY         1 TEMP              0 ****  ****    0 ROOT
