@<TRIPOS>MOLECULE
BHY
   56    57     1     0     0
SMALL
bcc


@<TRIPOS>ATOM
      1 N1          -6.9870     0.3560    -0.5480 n7         1 BHY      -0.818600
      2 C2          -2.6090    -0.7790    -1.6270 ca         1 BHY      -0.123500
      3 N2           6.9720     0.3610     0.5430 n7         1 BHY      -0.818600
      4 C4          -0.7340    -1.1180    -0.1340 cp         1 BHY      -0.031000
      5 O4          -9.2750     1.2480    -0.1580 o          1 BHY      -0.599050
      6 C6          -3.0110    -1.4390     0.6290 ca         1 BHY      -0.123500
      7 C7           3.5040    -1.1040     0.6190 ca         1 BHY      -0.085300
      8 C1          -3.5180    -1.1070    -0.6260 ca         1 BHY      -0.085300
      9 O1           9.2590     1.2560     0.1540 o          1 BHY      -0.599050
     10 S1           7.9060     1.3570    -0.3720 s6         1 BHY       1.225900
     11 O2           7.6560     1.0230    -1.7670 o          1 BHY      -0.599050
     12 S2          -7.9230     1.3460     0.3720 s6         1 BHY       1.225900
     13 C3          -1.2430    -0.7820    -1.3880 ca         1 BHY      -0.116500
     14 O3          -7.6770     1.0030     1.7650 o          1 BHY      -0.599050
     15 C5          -1.6470    -1.4480     0.8700 ca         1 BHY      -0.116500
     16 C8           2.5940    -0.7820     1.6210 ca         1 BHY      -0.123500
     17 C9           1.2280    -0.7860     1.3820 ca         1 BHY      -0.116500
     18 C10          0.7200    -1.1170     0.1260 cp         1 BHY      -0.031000
     19 C11          1.6330    -1.4410    -0.8790 ca         1 BHY      -0.116500
     20 C12          2.9980    -1.4310    -0.6370 ca         1 BHY      -0.123500
     21 C13          4.9900    -1.0560     0.8840 c3         1 BHY      -0.011400
     22 C14         -5.0050    -1.0590    -0.8910 c3         1 BHY      -0.011400
     23 C15         -5.5680     0.2090    -0.2420 c3         1 BHY       0.203300
     24 C16         -5.7330    -2.3160    -0.4220 c3         1 BHY      -0.080100
     25 C17          5.7200    -2.3100     0.4120 c3         1 BHY      -0.080100
     26 C18          5.5530     0.2160     0.2400 c3         1 BHY       0.203300
     27 C19          7.3300     3.0180    -0.0950 c3         1 BHY      -0.276300
     28 C20         -7.3480     3.0090     0.1080 c3         1 BHY      -0.276300
     29 HN1         -7.1910     0.4540    -1.5370 hn         1 BHY       0.423800
     30 H2          -2.9730    -0.5040    -2.6100 ha         1 BHY       0.133000
     31 HN2          7.1780     0.4530     1.5330 hn         1 BHY       0.423800
     32 H6          -3.6830    -1.7000     1.4370 ha         1 BHY       0.133000
     33 H3          -0.5700    -0.5010    -2.1890 ha         1 BHY       0.134500
     34 H5          -1.2920    -1.7370     1.8510 ha         1 BHY       0.134500
     35 H8           2.9570    -0.5110     2.6060 ha         1 BHY       0.133000
     36 H9           0.5550    -0.5100     2.1840 ha         1 BHY       0.134500
     37 H11          1.2790    -1.7260    -1.8620 ha         1 BHY       0.134500
     38 H12          3.6700    -1.6870    -1.4470 ha         1 BHY       0.133000
     39 H13          5.1250    -0.9680     1.9680 hc         1 BHY       0.050200
     40 H14         -5.1400    -0.9690    -1.9740 hc         1 BHY       0.050200
     41 H15         -4.9920     1.0770    -0.5820 h1         1 BHY       0.054200
     42 H15A        -5.4550     0.1410     0.8400 h1         1 BHY       0.054200
     43 H16         -5.6770    -2.4360     0.6610 hc         1 BHY       0.043700
     44 H16A        -6.7870    -2.2750    -0.6910 hc         1 BHY       0.043700
     45 H16B        -5.3010    -3.2050    -0.8810 hc         1 BHY       0.043700
     46 H17          6.7730    -2.2700     0.6830 hc         1 BHY       0.043700
     47 H17A         5.2870    -3.2010     0.8660 hc         1 BHY       0.043700
     48 H17B         5.6660    -2.4250    -0.6720 hc         1 BHY       0.043700
     49 H18          4.9780     1.0810     0.5850 h1         1 BHY       0.054200
     50 H18A         5.4360     0.1520    -0.8420 h1         1 BHY       0.054200
     51 H19          7.4540     3.2680     0.9560 h1         1 BHY       0.100700
     52 H19A         7.9280     3.6890    -0.7100 h1         1 BHY       0.100700
     53 H19B         6.2830     3.0980    -0.3800 h1         1 BHY       0.100700
     54 H20         -7.4690     3.2670    -0.9410 h1         1 BHY       0.100700
     55 H20A        -7.9460     3.6760     0.7270 h1         1 BHY       0.100700
     56 H20B        -6.3010     3.0860     0.3950 h1         1 BHY       0.100700
@<TRIPOS>BOND
     1     1    12 1   
     2     1    23 1   
     3     1    29 1   
     4     2     8 ar  
     5     2    13 ar  
     6     2    30 1   
     7     3    10 1   
     8     3    26 1   
     9     3    31 1   
    10     4    13 ar  
    11     4    15 ar  
    12     4    18 1   
    13     5    12 2   
    14     6     8 ar  
    15     6    15 ar  
    16     6    32 1   
    17     7    16 ar  
    18     7    20 ar  
    19     7    21 1   
    20     8    22 1   
    21     9    10 2   
    22    10    11 2   
    23    10    27 1   
    24    12    14 2   
    25    12    28 1   
    26    13    33 1   
    27    15    34 1   
    28    16    17 ar  
    29    16    35 1   
    30    17    18 ar  
    31    17    36 1   
    32    18    19 ar  
    33    19    20 ar  
    34    19    37 1   
    35    20    38 1   
    36    21    25 1   
    37    21    26 1   
    38    21    39 1   
    39    22    23 1   
    40    22    24 1   
    41    22    40 1   
    42    23    41 1   
    43    23    42 1   
    44    24    43 1   
    45    24    44 1   
    46    24    45 1   
    47    25    46 1   
    48    25    47 1   
    49    25    48 1   
    50    26    49 1   
    51    26    50 1   
    52    27    51 1   
    53    27    52 1   
    54    27    53 1   
    55    28    54 1   
    56    28    55 1   
    57    28    56 1   
@<TRIPOS>SUBSTRUCTURE
     1 BHY         1 TEMP              0 ****  ****    0 ROOT
