@<TRIPOS>MOLECULE
BHZ
   49    50     1     0     0
SMALL
bcc


@<TRIPOS>ATOM
      1 C1           3.4470    -1.0070     0.5500 ca         1 BHZ      -0.170300
      2 C2           3.4710    -2.2180    -0.1390 ca         1 BHZ      -0.074000
      3 C3           4.6530    -2.8020    -0.5660 ca         1 BHZ      -0.223000
      4 C4           5.8540    -2.1540    -0.2950 ca         1 BHZ      -0.111000
      5 C5           5.8560    -0.9390     0.3660 ca         1 BHZ      -0.224000
      6 C6           4.6600    -0.3390     0.7840 ca         1 BHZ       0.222100
      7 O6           4.7450     0.8370     1.4100 oh         1 BHZ      -0.609100
      8 C7           2.1170    -0.4810     1.0250 c3         1 BHZ       0.241100
      9 N8           1.3440     0.1300    -0.0470 n3         1 BHZ      -0.753600
     10 C9          -0.0450     0.3670     0.3070 c3         1 BHZ       0.178800
     11 C10         -0.9740     0.1640    -0.8870 c3         1 BHZ       0.179800
     12 N11         -2.2980     0.6890    -0.6120 n3         1 BHZ      -0.710600
     13 C12         -3.3490    -0.0850    -1.2340 c3         1 BHZ       0.229100
     14 C13         -3.5540    -1.3990    -0.5280 ca         1 BHZ      -0.050300
     15 C14         -3.7340    -1.4130     0.8550 ca         1 BHZ      -0.113000
     16 C15         -3.9380    -2.6080     1.5280 ca         1 BHZ      -0.151500
     17 C16         -3.9600    -3.8110     0.8290 ca         1 BHZ      -0.158000
     18 C17         -3.7790    -3.8070    -0.5460 ca         1 BHZ      -0.151500
     19 C18         -3.5760    -2.6060    -1.2180 ca         1 BHZ      -0.113000
     20 C19          1.9680     1.2760    -0.6910 c3         1 BHZ       0.044800
     21 C20          2.0630     2.5330     0.1920 c          1 BHZ       0.895600
     22 O20          2.9140     2.5110     1.1340 o          1 BHZ      -0.806300
     23 C21         -2.4010     2.1030    -0.8880 c3         1 BHZ       0.023800
     24 O21          1.3000     3.4790    -0.0320 o          1 BHZ      -0.806300
     25 C22         -3.5610     2.8330    -0.1810 c          1 BHZ       0.930600
     26 O22         -4.1760     2.2420     0.7250 o          1 BHZ      -0.850800
     27 O23         -3.7610     4.0000    -0.5800 o          1 BHZ      -0.850800
     28 H2           2.5280    -2.7200    -0.3260 ha         1 BHZ       0.121000
     29 H3           4.6410    -3.7480    -1.0900 ha         1 BHZ       0.103000
     30 H4           6.7940    -2.5940    -0.6050 ha         1 BHZ       0.095000
     31 H5           6.7910    -0.4270     0.5620 ha         1 BHZ       0.119000
     32 HO6          3.9270     1.4460     1.2800 ho         1 BHZ       0.531000
     33 H7           1.5340    -1.3360     1.3780 h1         1 BHZ       0.032700
     34 H7A          2.2440     0.1700     1.9000 h1         1 BHZ       0.032700
     35 H9          -0.3400    -0.3460     1.0800 h1         1 BHZ       0.047200
     36 H9A         -0.2080     1.3620     0.7430 h1         1 BHZ       0.047200
     37 H10         -0.5440     0.6050    -1.8010 h1         1 BHZ       0.014200
     38 H10A        -1.0420    -0.9090    -1.0810 h1         1 BHZ       0.014200
     39 H12         -4.2750     0.4890    -1.1740 h1         1 BHZ       0.033700
     40 H12A        -3.1690    -0.2640    -2.3090 h1         1 BHZ       0.033700
     41 H14         -3.7140    -0.4710     1.3890 ha         1 BHZ       0.151000
     42 H15         -4.0780    -2.6040     2.6010 ha         1 BHZ       0.107500
     43 H16         -4.1170    -4.7440     1.3560 ha         1 BHZ       0.100000
     44 H17         -3.7880    -4.7390    -1.0990 ha         1 BHZ       0.107500
     45 H18         -3.4280    -2.6100    -2.2920 ha         1 BHZ       0.151000
     46 H19          2.9640     0.9830    -1.0360 h1         1 BHZ       0.037200
     47 H19A         1.3930     1.5190    -1.5870 h1         1 BHZ       0.037200
     48 H21         -1.4750     2.5880    -0.5570 h1         1 BHZ       0.032700
     49 H21A        -2.4610     2.3120    -1.9710 h1         1 BHZ       0.032700
@<TRIPOS>BOND
     1     1     2 ar  
     2     1     6 ar  
     3     1     8 1   
     4     2     3 ar  
     5     2    28 1   
     6     3     4 ar  
     7     3    29 1   
     8     4     5 ar  
     9     4    30 1   
    10     5     6 ar  
    11     5    31 1   
    12     6     7 1   
    13     7    32 1   
    14     8     9 1   
    15     8    33 1   
    16     8    34 1   
    17     9    10 1   
    18     9    20 1   
    19    10    11 1   
    20    10    35 1   
    21    10    36 1   
    22    11    12 1   
    23    11    37 1   
    24    11    38 1   
    25    12    13 1   
    26    12    23 1   
    27    13    14 1   
    28    13    39 1   
    29    13    40 1   
    30    14    15 ar  
    31    14    19 ar  
    32    15    16 ar  
    33    15    41 1   
    34    16    17 ar  
    35    16    42 1   
    36    17    18 ar  
    37    17    43 1   
    38    18    19 ar  
    39    18    44 1   
    40    19    45 1   
    41    20    21 1   
    42    20    46 1   
    43    20    47 1   
    44    21    22 1   
    45    21    24 1   
    46    23    25 1   
    47    23    48 1   
    48    23    49 1   
    49    25    26 1   
    50    25    27 1   
@<TRIPOS>SUBSTRUCTURE
     1 BHZ         1 TEMP              0 ****  ****    0 ROOT
