@<TRIPOS>MOLECULE
BHZ
   49    50     1     0     0
SMALL
No Charge or Current Charge


@<TRIPOS>ATOM
      1 C1           3.6870    -0.6840     0.8510 ca         1 BHZ      -0.170300
      2 C2           3.6060    -2.0880     0.9670 ca         1 BHZ      -0.056000
      3 C3           4.7440    -2.8880     0.7740 ca         1 BHZ      -0.205000
      4 C4           5.9780    -2.2960     0.4700 ca         1 BHZ      -0.093000
      5 C5           6.0690    -0.9000     0.3540 ca         1 BHZ      -0.206000
      6 C6           4.9330    -0.0940     0.5340 ca         1 BHZ       0.222100
      7 O6           5.0770     1.2550     0.4010 oh         1 BHZ      -0.648100
      8 C7           2.4290     0.1430     1.1190 c3         1 BHZ       0.241100
      9 N8           1.3550    -0.0550     0.1100 n3         1 BHZ      -0.753600
     10 C9           0.0850     0.6190     0.5160 c3         1 BHZ       0.178800
     11 C10         -1.1700     0.2850    -0.3510 c3         1 BHZ       0.179800
     12 N11         -2.4790     0.7750     0.1800 n3         1 BHZ      -0.710600
     13 C12         -3.6370     0.2520    -0.5940 c3         1 BHZ       0.229100
     14 C13         -3.7440    -1.2730    -0.6070 ca         1 BHZ      -0.050300
     15 C14         -4.0280    -1.9730     0.5820 ca         1 BHZ      -0.095000
     16 C15         -4.1310    -3.3760     0.5740 ca         1 BHZ      -0.133500
     17 C16         -3.9500    -4.0870    -0.6240 ca         1 BHZ      -0.140000
     18 C17         -3.6650    -3.3960    -1.8130 ca         1 BHZ      -0.133500
     19 C18         -3.5630    -1.9930    -1.8060 ca         1 BHZ      -0.095000
     20 C19          1.7900     0.2760    -1.2970 c3         1 BHZ       0.044800
     21 C20          2.2000     1.7520    -1.6290 c          1 BHZ       0.685000
     22 O20          3.2700     2.1610    -1.1940 o          1 BHZ      -0.701000
     23 C21         -2.5310     2.2750     0.3370 c3         1 BHZ       0.023800
     24 O21          1.4350     2.4380    -2.2940 o          1 BHZ      -0.701000
     25 C22         -3.8230     2.9330     0.9450 c          1 BHZ       0.720000
     26 O22         -3.9540     2.9540     2.1630 o          1 BHZ      -0.745500
     27 O23         -4.6460     3.4190     0.1790 o          1 BHZ      -0.745500
     28 H2           2.6550    -2.5570     1.2120 ha         1 BHZ       0.103000
     29 H3           4.6690    -3.9690     0.8650 ha         1 BHZ       0.085000
     30 H4           6.8610    -2.9140     0.3240 ha         1 BHZ       0.077000
     31 H5           7.0250    -0.4400     0.1170 ha         1 BHZ       0.101000
     32 HO6          4.3240     1.5910    -0.1800 ho         1 BHZ       0.570000
     33 H7           2.0520    -0.1520     2.1080 h1         1 BHZ       0.032700
     34 H7A          2.6800     1.2080     1.2010 h1         1 BHZ       0.032700
     35 H9          -0.1570     0.3350     1.5490 h1         1 BHZ       0.047200
     36 H9A          0.2320     1.7080     0.5130 h1         1 BHZ       0.047200
     37 H10         -1.0190     0.6880    -1.3610 h1         1 BHZ       0.014200
     38 H10A        -1.2030    -0.8080    -0.4460 h1         1 BHZ       0.014200
     39 H12         -4.5750     0.6340    -0.1690 h1         1 BHZ       0.033700
     40 H12A        -3.5890     0.6190    -1.6290 h1         1 BHZ       0.033700
     41 H14         -4.1660    -1.4260     1.5120 ha         1 BHZ       0.133000
     42 H15         -4.3500    -3.9090     1.4960 ha         1 BHZ       0.089500
     43 H16         -4.0280    -5.1710    -0.6300 ha         1 BHZ       0.082000
     44 H17         -3.5240    -3.9460    -2.7410 ha         1 BHZ       0.089500
     45 H18         -3.3410    -1.4660    -2.7310 ha         1 BHZ       0.133000
     46 H19          2.6520    -0.3480    -1.5680 h1         1 BHZ       0.037200
     47 H19A         0.9990    -0.0050    -2.0040 h1         1 BHZ       0.037200
     48 H21         -1.7050     2.6060     0.9790 h1         1 BHZ       0.032700
     49 H21A        -2.3660     2.7450    -0.6420 h1         1 BHZ       0.032700
@<TRIPOS>BOND
     1     1     2 ar  
     2     1     6 ar  
     3     1     8 1   
     4     2     3 ar  
     5     2    28 1   
     6     3     4 ar  
     7     3    29 1   
     8     4     5 ar  
     9     4    30 1   
    10     5     6 ar  
    11     5    31 1   
    12     6     7 1   
    13     7    32 1   
    14     8     9 1   
    15     8    33 1   
    16     8    34 1   
    17     9    10 1   
    18     9    20 1   
    19    10    11 1   
    20    10    35 1   
    21    10    36 1   
    22    11    12 1   
    23    11    37 1   
    24    11    38 1   
    25    12    13 1   
    26    12    23 1   
    27    13    14 1   
    28    13    39 1   
    29    13    40 1   
    30    14    15 ar  
    31    14    19 ar  
    32    15    16 ar  
    33    15    41 1   
    34    16    17 ar  
    35    16    42 1   
    36    17    18 ar  
    37    17    43 1   
    38    18    19 ar  
    39    18    44 1   
    40    19    45 1   
    41    20    21 1   
    42    20    46 1   
    43    20    47 1   
    44    21    22 1   
    45    21    24 1   
    46    23    25 1   
    47    23    48 1   
    48    23    49 1   
    49    25    26 1   
    50    25    27 1   
@<TRIPOS>SUBSTRUCTURE
     1 BHZ         1 TEMP              0 ****  ****    0 ROOT
