@<TRIPOS>MOLECULE
BI1
   55    59     1     0     0
SMALL
bcc


@<TRIPOS>ATOM
      1 CBD         -2.1600    -0.2720     7.2710 c3         1 BI1       0.149100
      2 NBC         -1.3790    -0.6790     6.1220 n3         1 BI1      -0.710600
      3 CBE         -1.7040    -2.0380     5.7430 c3         1 BI1       0.149100
      4 CBB         -1.5420     0.2550     5.0250 c3         1 BI1       0.169800
      5 CBA         -0.5020     0.0780     3.9270 c3         1 BI1      -0.104400
      6 CAY         -0.6650     1.1390     2.8450 c3         1 BI1       0.045300
      7 NAH          0.3170     1.0060     1.7900 na         1 BI1      -0.050400
      8 CAW          0.1400     0.3080     0.6430 cc         1 BI1      -0.070100
      9 CAE          1.6170     1.4410     1.8480 ca         1 BI1      -0.056200
     10 CAF          2.2550     2.2030     2.8250 ca         1 BI1      -0.142000
     11 CAA          3.5770     2.5370     2.6100 ca         1 BI1      -0.112000
     12 CAB          4.2480     2.1280     1.4470 ca         1 BI1      -0.153000
     13 CAC          3.6140     1.3670     0.4840 ca         1 BI1      -0.069000
     14 CAD          2.2780     0.9990     0.6810 ca         1 BI1      -0.065800
     15 CAG          1.3060     0.2650    -0.0840 cd         1 BI1      -0.115200
     16 CAI          1.4550    -0.4000    -1.3570 cd         1 BI1      -0.055200
     17 CAT          2.6480    -1.2460    -1.6810 c          1 BI1       0.708700
     18 OAZ          3.6060    -1.4690    -0.9840 o          1 BI1      -0.558500
     19 NAU          2.4290    -1.7670    -2.9340 ns         1 BI1      -0.628500
     20 CAV          1.2110    -1.3650    -3.4340 c          1 BI1       0.709700
     21 OAX          0.7680    -1.6490    -4.5190 o          1 BI1      -0.557500
     22 CAJ          0.5910    -0.4950    -2.3900 cc         1 BI1      -0.074200
     23 CAK         -0.6870     0.1510    -2.5980 cc         1 BI1      -0.110200
     24 CAM         -1.9150    -0.4300    -3.0670 ca         1 BI1      -0.070800
     25 CAP         -2.3130    -1.7230    -3.4280 ca         1 BI1      -0.067000
     26 CAQ         -3.6210    -1.9350    -3.8150 ca         1 BI1      -0.155000
     27 CAR         -4.5500    -0.8820    -3.8490 ca         1 BI1      -0.109000
     28 CAS         -4.1910     0.4010    -3.4850 ca         1 BI1      -0.146000
     29 CAN         -2.8700     0.6080    -3.0910 ca         1 BI1      -0.058200
     30 NAO         -2.2480     1.7480    -2.6620 na         1 BI1      -0.165400
     31 CAL         -0.9550     1.4780    -2.3640 cd         1 BI1      -0.076100
     32 HBD1        -1.9930    -0.9630     8.0980 h1         1 BI1       0.032033
     33 HBD2        -1.8580     0.7220     7.6020 h1         1 BI1       0.032033
     34 HBD3        -3.2440    -0.2460     7.0740 h1         1 BI1       0.032033
     35 HBE1        -1.0600    -2.3870     4.9360 h1         1 BI1       0.032033
     36 HBE2        -1.5490    -2.7060     6.5920 h1         1 BI1       0.032033
     37 HBE3        -2.7480    -2.1550     5.4120 h1         1 BI1       0.032033
     38 HBB1        -2.5550     0.1950     4.5870 h1         1 BI1       0.027700
     39 HBB2        -1.4440     1.2670     5.4300 h1         1 BI1       0.027700
     40 HBA1         0.4970     0.1420     4.3650 hc         1 BI1       0.064700
     41 HBA2        -0.5850    -0.9070     3.4610 hc         1 BI1       0.064700
     42 HAY1        -1.6530     1.0710     2.3880 h1         1 BI1       0.057200
     43 HAY2        -0.5850     2.1420     3.2690 h1         1 BI1       0.057200
     44 HAW         -0.8190    -0.1290     0.4090 h4         1 BI1       0.172000
     45 HAF          1.7390     2.5310     3.7190 ha         1 BI1       0.132000
     46 HAA          4.1030     3.1290     3.3480 ha         1 BI1       0.129000
     47 HAB          5.2810     2.4160     1.3030 ha         1 BI1       0.130000
     48 HAC          4.1480     1.0670    -0.4070 ha         1 BI1       0.142000
     49 HAU          3.0640    -2.3900    -3.4100 hn         1 BI1       0.348500
     50 HAP         -1.6130    -2.5470    -3.4010 ha         1 BI1       0.140000
     51 HAQ         -3.9410    -2.9290    -4.0970 ha         1 BI1       0.131000
     52 HAR         -5.5680    -1.0810    -4.1600 ha         1 BI1       0.129000
     53 HAS         -4.9070     1.2120    -3.4990 ha         1 BI1       0.131000
     54 HAO         -2.6720     2.6580    -2.5950 hn         1 BI1       0.301700
     55 HAL         -0.2950     2.2530    -2.0100 h4         1 BI1       0.173000
@<TRIPOS>BOND
     1     1     2 1   
     2     1    32 1   
     3     1    33 1   
     4     1    34 1   
     5     2     3 1   
     6     2     4 1   
     7     3    35 1   
     8     3    36 1   
     9     3    37 1   
    10     4     5 1   
    11     4    38 1   
    12     4    39 1   
    13     5     6 1   
    14     5    40 1   
    15     5    41 1   
    16     6     7 1   
    17     6    42 1   
    18     6    43 1   
    19     7     8 1   
    20     7     9 1   
    21     8    15 2   
    22     8    44 1   
    23     9    10 ar  
    24     9    14 ar  
    25    10    11 ar  
    26    10    45 1   
    27    11    12 ar  
    28    11    46 1   
    29    12    13 ar  
    30    12    47 1   
    31    13    14 ar  
    32    13    48 1   
    33    14    15 1   
    34    15    16 1   
    35    16    17 1   
    36    16    22 2   
    37    17    18 2   
    38    17    19 1   
    39    19    20 1   
    40    19    49 1   
    41    20    21 2   
    42    20    22 1   
    43    22    23 1   
    44    23    24 1   
    45    23    31 2   
    46    24    25 ar  
    47    24    29 ar  
    48    25    26 ar  
    49    25    50 1   
    50    26    27 ar  
    51    26    51 1   
    52    27    28 ar  
    53    27    52 1   
    54    28    29 ar  
    55    28    53 1   
    56    29    30 1   
    57    30    31 1   
    58    30    54 1   
    59    31    55 1   
@<TRIPOS>SUBSTRUCTURE
     1 BI1         1 TEMP              0 ****  ****    0 ROOT
