@<TRIPOS>MOLECULE
BI1
   55    59     1     0     0
SMALL
No Charge or Current Charge


@<TRIPOS>ATOM
      1 CBD         -2.2800    -0.2170     7.2970 c3         1 BI1       0.149100
      2 NBC         -1.4290    -0.6110     6.1510 n3         1 BI1      -0.710600
      3 CBE         -1.6230    -2.0360     5.7870 c3         1 BI1       0.149100
      4 CBB         -1.5660     0.3270     5.0090 c3         1 BI1       0.169800
      5 CBA         -0.5320     0.1240     3.8800 c3         1 BI1      -0.104400
      6 CAY         -0.6170     1.2220     2.8000 c3         1 BI1       0.074600
      7 NAH          0.3600     1.0340     1.7140 na         1 BI1      -0.079700
      8 CAW          0.1330     0.4010     0.4800 cc         1 BI1      -0.120100
      9 CAE          1.6850     1.4340     1.8220 ca         1 BI1      -0.056200
     10 CAF          2.3340     2.1030     2.8730 ca         1 BI1      -0.124000
     11 CAA          3.6950     2.4350     2.7090 ca         1 BI1      -0.094000
     12 CAB          4.3680     2.1140     1.5070 ca         1 BI1      -0.135000
     13 CAC          3.6920     1.4440     0.4660 ca         1 BI1      -0.051000
     14 CAD          2.3480     1.0910     0.6710 ca         1 BI1      -0.065800
     15 CAG          1.3610     0.4450    -0.1780 cd         1 BI1      -0.115200
     16 CAI          1.5490    -0.3170    -1.4040 cd         1 BI1      -0.055200
     17 CAT          2.7870    -1.0100    -1.8500 c          1 BI1       0.566200
     18 OAZ          3.9050    -1.0370    -1.3640 o          1 BI1      -0.483000
     19 NAU          2.3860    -1.7280    -2.9200 ns         1 BI1      -0.494500
     20 CAV          1.0900    -1.6150    -3.2840 c          1 BI1       0.567200
     21 OAX          0.5980    -2.1390    -4.2690 o          1 BI1      -0.482000
     22 CAJ          0.5260    -0.6550    -2.3030 cc         1 BI1      -0.074200
     23 CAK         -0.7880    -0.0380    -2.4210 cc         1 BI1      -0.110200
     24 CAM         -2.0010    -0.5060    -3.0550 ca         1 BI1      -0.070800
     25 CAP         -2.3590    -1.7550    -3.5930 ca         1 BI1      -0.049000
     26 CAQ         -3.6600    -1.9110    -4.1150 ca         1 BI1      -0.137000
     27 CAR         -4.5810    -0.8410    -4.0730 ca         1 BI1      -0.091000
     28 CAS         -4.2100     0.3890    -3.4930 ca         1 BI1      -0.128000
     29 CAN         -2.9100     0.5180    -2.9850 ca         1 BI1      -0.058200
     30 NAO         -2.3740     1.6210    -2.3500 na         1 BI1      -0.215700
     31 CAL         -1.0500     1.2670    -2.0020 cd         1 BI1      -0.126100
     32 HBD1        -2.1020    -0.8740     8.1590 h1         1 BI1       0.032033
     33 HBD2        -2.0610     0.8130     7.6090 h1         1 BI1       0.032033
     34 HBD3        -3.3450    -0.2770     7.0330 h1         1 BI1       0.032033
     35 HBE1        -0.8750    -2.3650     5.0550 h1         1 BI1       0.032033
     36 HBE2        -1.5190    -2.6790     6.6720 h1         1 BI1       0.032033
     37 HBE3        -2.6220    -2.2000     5.3620 h1         1 BI1       0.032033
     38 HBB1        -2.5750     0.2510     4.5810 h1         1 BI1       0.027700
     39 HBB2        -1.4520     1.3560     5.3770 h1         1 BI1       0.027700
     40 HBA1         0.4750     0.1190     4.3130 hc         1 BI1       0.064700
     41 HBA2        -0.6870    -0.8490     3.4020 hc         1 BI1       0.064700
     42 HAY1        -1.6240     1.2200     2.3630 h1         1 BI1       0.057200
     43 HAY2        -0.4590     2.2070     3.2570 h1         1 BI1       0.057200
     44 HAW         -0.8110    -0.0700     0.2300 h4         1 BI1       0.222000
     45 HAF          1.8100     2.3680     3.7880 ha         1 BI1       0.114000
     46 HAA          4.2250     2.9560     3.5040 ha         1 BI1       0.111000
     47 HAB          5.4110     2.3960     1.3800 ha         1 BI1       0.112000
     48 HAC          4.2010     1.2380    -0.4700 ha         1 BI1       0.124000
     49 HAU          3.0270    -2.3140    -3.4320 hn         1 BI1       0.348500
     50 HAP         -1.6790    -2.5990    -3.5850 ha         1 BI1       0.122000
     51 HAQ         -3.9600    -2.8660    -4.5400 ha         1 BI1       0.113000
     52 HAR         -5.5850    -0.9710    -4.4730 ha         1 BI1       0.111000
     53 HAS         -4.9190     1.2120    -3.4350 ha         1 BI1       0.113000
     54 HAO         -2.8300     2.5140    -2.1870 hn         1 BI1       0.352000
     55 HAL         -0.3830     1.9870    -1.5370 h4         1 BI1       0.223000
@<TRIPOS>BOND
     1     1     2 1   
     2     1    32 1   
     3     1    33 1   
     4     1    34 1   
     5     2     3 1   
     6     2     4 1   
     7     3    35 1   
     8     3    36 1   
     9     3    37 1   
    10     4     5 1   
    11     4    38 1   
    12     4    39 1   
    13     5     6 1   
    14     5    40 1   
    15     5    41 1   
    16     6     7 1   
    17     6    42 1   
    18     6    43 1   
    19     7     8 1   
    20     7     9 1   
    21     8    15 2   
    22     8    44 1   
    23     9    10 ar  
    24     9    14 ar  
    25    10    11 ar  
    26    10    45 1   
    27    11    12 ar  
    28    11    46 1   
    29    12    13 ar  
    30    12    47 1   
    31    13    14 ar  
    32    13    48 1   
    33    14    15 1   
    34    15    16 1   
    35    16    17 1   
    36    16    22 2   
    37    17    18 2   
    38    17    19 1   
    39    19    20 1   
    40    19    49 1   
    41    20    21 2   
    42    20    22 1   
    43    22    23 1   
    44    23    24 1   
    45    23    31 2   
    46    24    25 ar  
    47    24    29 ar  
    48    25    26 ar  
    49    25    50 1   
    50    26    27 ar  
    51    26    51 1   
    52    27    28 ar  
    53    27    52 1   
    54    28    29 ar  
    55    28    53 1   
    56    29    30 1   
    57    30    31 1   
    58    30    54 1   
    59    31    55 1   
@<TRIPOS>SUBSTRUCTURE
     1 BI1         1 TEMP              0 ****  ****    0 ROOT
