@<TRIPOS>MOLECULE
BI2
   59    64     1     0     0
SMALL
No Charge or Current Charge


@<TRIPOS>ATOM
      1 CBD          2.7900    -1.5810     5.7920 c3         1 BI2       0.146100
      2 NBC          1.7650    -0.9340     4.9350 n3         1 BI2      -0.706600
      3 CBG          1.0360     0.1870     5.5810 c5         1 BI2       0.147800
      4 CBF          1.9860     1.4050     5.3710 c5         1 BI2      -0.111400
      5 CBE          2.9080     0.9830     4.1800 c5         1 BI2      -0.101400
      6 CBB          2.2740    -0.3440     3.6670 c5         1 BI2       0.161500
      7 CBA          1.1910    -0.1220     2.5780 c3         1 BI2      -0.087400
      8 CAY          0.4690    -1.4150     2.1510 c3         1 BI2       0.074600
      9 NAH         -0.5510    -1.1700     1.1190 na         1 BI2      -0.073700
     10 CAW         -0.3460    -1.1470    -0.2690 cc         1 BI2      -0.105100
     11 CAE         -1.8700    -0.8550     1.4240 ca         1 BI2      -0.060200
     12 CAF         -2.4950    -0.7390     2.6770 ca         1 BI2      -0.122000
     13 CAA         -3.8510    -0.3530     2.7090 ca         1 BI2      -0.099000
     14 CAB         -4.5420    -0.0710     1.5080 ca         1 BI2      -0.136000
     15 CAC         -3.8880    -0.1840     0.2630 ca         1 BI2      -0.055000
     16 CAD         -2.5490    -0.6070     0.2570 ca         1 BI2      -0.058800
     17 CAG         -1.5750    -0.7740    -0.8080 cd         1 BI2      -0.131200
     18 CAI         -1.7590    -0.7930    -2.2490 cd         1 BI2      -0.017200
     19 CAT         -2.9960    -1.1460    -2.9980 c          1 BI2       0.563200
     20 OAZ         -4.1290    -1.3740    -2.6080 o          1 BI2      -0.483000
     21 NAU         -2.5690    -1.2820    -4.2740 ns         1 BI2      -0.494500
     22 CAV         -1.2570    -1.0610    -4.5060 c          1 BI2       0.569200
     23 OAX         -0.7120    -1.1250    -5.5960 o          1 BI2      -0.487000
     24 CAJ         -0.7210    -0.6680    -3.1810 cc         1 BI2      -0.106200
     25 CAK          0.6190    -0.1330    -2.9850 cc         1 BI2      -0.100200
     26 CAM          1.1600     0.7960    -2.0130 ca         1 BI2      -0.084800
     27 CAP          0.5450     1.5870    -1.0250 ca         1 BI2      -0.071000
     28 CAQ          1.3540     2.4470    -0.2530 ca         1 BI2      -0.138000
     29 CAR          2.7420     2.5350    -0.5020 ca         1 BI2      -0.096000
     30 CAS          3.3220     1.7850    -1.5450 ca         1 BI2      -0.123000
     31 CAN          2.4950     0.9320    -2.2900 ca         1 BI2      -0.052200
     32 NAO          2.8500     0.1930    -3.4030 na         1 BI2      -0.218700
     33 CAL          1.6600    -0.4130    -3.8690 cd         1 BI2      -0.116100
     34 HBD1         3.5490    -0.8650     6.1330 h1         1 BI2       0.032033
     35 HBD2         2.3200    -2.0240     6.6800 h1         1 BI2       0.032033
     36 HBD3         3.2980    -2.3840     5.2430 h1         1 BI2       0.032033
     37 HBG1         0.8300     0.0010     6.6440 h1         1 BI2       0.055700
     38 HBG2         0.0660     0.3610     5.0940 h1         1 BI2       0.055700
     39 HBF1         2.5780     1.6070     6.2700 hc         1 BI2       0.049700
     40 HBF2         1.4170     2.3150     5.1500 hc         1 BI2       0.049700
     41 HBE1         3.9370     0.8190     4.5200 hc         1 BI2       0.050200
     42 HBE2         2.9580     1.7500     3.3980 hc         1 BI2       0.050200
     43 HBB          3.0450    -0.9860     3.2180 h1         1 BI2       0.052700
     44 HBA1         1.6680     0.3120     1.6920 hc         1 BI2       0.055700
     45 HBA2         0.4450     0.6110     2.9050 hc         1 BI2       0.055700
     46 HAY1        -0.0000    -1.8880     3.0220 h1         1 BI2       0.068200
     47 HAY2         1.2050    -2.1240     1.7510 h1         1 BI2       0.068200
     48 HAW          0.5980    -1.4230    -0.7240 h4         1 BI2       0.227000
     49 HAF         -1.9570    -0.9300     3.6020 ha         1 BI2       0.122000
     50 HAA         -4.3630    -0.2540     3.6640 ha         1 BI2       0.109000
     51 HAB         -5.5800     0.2510     1.5440 ha         1 BI2       0.110000
     52 HAC         -4.4090     0.0810    -0.6510 ha         1 BI2       0.124000
     53 HAU         -3.1960    -1.5550    -5.0140 hn         1 BI2       0.347500
     54 HAP         -0.5270     1.5600    -0.8600 ha         1 BI2       0.119000
     55 HAQ          0.9040     3.0530     0.5300 ha         1 BI2       0.112000
     56 HAR          3.3590     3.2050     0.0930 ha         1 BI2       0.111000
     57 HAS          4.3800     1.8800    -1.7750 ha         1 BI2       0.114000
     58 HAO          3.7710     0.1330    -3.8260 hn         1 BI2       0.353000
     59 HAL          1.6630    -1.0420    -4.7540 h4         1 BI2       0.220000
@<TRIPOS>BOND
     1     1     2 1   
     2     1    34 1   
     3     1    35 1   
     4     1    36 1   
     5     2     3 1   
     6     2     6 1   
     7     3     4 1   
     8     3    37 1   
     9     3    38 1   
    10     4     5 1   
    11     4    39 1   
    12     4    40 1   
    13     5     6 1   
    14     5    41 1   
    15     5    42 1   
    16     6     7 1   
    17     6    43 1   
    18     7     8 1   
    19     7    44 1   
    20     7    45 1   
    21     8     9 1   
    22     8    46 1   
    23     8    47 1   
    24     9    10 1   
    25     9    11 1   
    26    10    17 2   
    27    10    48 1   
    28    11    12 ar  
    29    11    16 ar  
    30    12    13 ar  
    31    12    49 1   
    32    13    14 ar  
    33    13    50 1   
    34    14    15 ar  
    35    14    51 1   
    36    15    16 ar  
    37    15    52 1   
    38    16    17 1   
    39    17    18 1   
    40    18    19 1   
    41    18    24 2   
    42    19    20 2   
    43    19    21 1   
    44    21    22 1   
    45    21    53 1   
    46    22    23 2   
    47    22    24 1   
    48    24    25 1   
    49    25    26 1   
    50    25    33 2   
    51    26    27 ar  
    52    26    31 ar  
    53    27    28 ar  
    54    27    54 1   
    55    28    29 ar  
    56    28    55 1   
    57    29    30 ar  
    58    29    56 1   
    59    30    31 ar  
    60    30    57 1   
    61    31    32 1   
    62    32    33 1   
    63    32    58 1   
    64    33    59 1   
@<TRIPOS>SUBSTRUCTURE
     1 BI2         1 TEMP              0 ****  ****    0 ROOT
