@<TRIPOS>MOLECULE
BI2
   59    64     1     0     0
SMALL
bcc


@<TRIPOS>ATOM
      1 CBD          2.5950    -1.1070     5.6270 c3         1 BI2       0.146100
      2 NBC          1.3410    -0.5590     5.1420 n3         1 BI2      -0.706600
      3 CBG          0.4700    -0.1180     6.2260 c5         1 BI2       0.147800
      4 CBF          0.9570     1.2820     6.6020 c5         1 BI2      -0.111400
      5 CBE          1.3750     1.8670     5.2460 c5         1 BI2      -0.101400
      6 CBB          1.5340     0.6350     4.3110 c5         1 BI2       0.161500
      7 CBA          0.5220     0.6550     3.1710 c3         1 BI2      -0.087400
      8 CAY          0.7220    -0.5240     2.2300 c3         1 BI2       0.045300
      9 NAH         -0.3120    -0.6220     1.2200 na         1 BI2      -0.044400
     10 CAW         -0.2270    -0.1580    -0.0440 cc         1 BI2      -0.055100
     11 CAE         -1.5680    -1.1370     1.4220 ca         1 BI2      -0.060200
     12 CAF         -2.0890    -1.7440     2.5620 ca         1 BI2      -0.140000
     13 CAA         -3.3780    -2.2340     2.4870 ca         1 BI2      -0.117000
     14 CAB         -4.1200    -2.1260     1.3020 ca         1 BI2      -0.154000
     15 CAC         -3.5990    -1.5130     0.1780 ca         1 BI2      -0.073000
     16 CAD         -2.3030    -0.9850     0.2280 ca         1 BI2      -0.058800
     17 CAG         -1.4190    -0.3400    -0.7140 cd         1 BI2      -0.131200
     18 CAI         -1.6420     0.0080    -2.0920 cd         1 BI2      -0.017200
     19 CAT         -2.9720     0.5000    -2.6020 c          1 BI2       0.705700
     20 OAZ         -3.9690     0.7200    -1.9640 o          1 BI2      -0.558500
     21 NAU         -2.8240     0.6930    -3.9520 ns         1 BI2      -0.628500
     22 CAV         -1.5320     0.4280    -4.3540 c          1 BI2       0.711700
     23 OAX         -1.1100     0.5200    -5.4800 o          1 BI2      -0.562500
     24 CAJ         -0.7880     0.0040    -3.1370 cc         1 BI2      -0.106200
     25 CAK          0.6280    -0.3260    -3.2000 cc         1 BI2      -0.100200
     26 CAM          1.7240     0.4970    -2.7770 ca         1 BI2      -0.084800
     27 CAP          1.8150     1.7660    -2.1960 ca         1 BI2      -0.089000
     28 CAQ          3.0650     2.2750    -1.9040 ca         1 BI2      -0.156000
     29 CAR          4.2310     1.5430    -2.1900 ca         1 BI2      -0.114000
     30 CAS          4.1690     0.2930    -2.7730 ca         1 BI2      -0.141000
     31 CAN          2.9050    -0.2180    -3.0630 ca         1 BI2      -0.052200
     32 NAO          2.5360    -1.4020    -3.6370 na         1 BI2      -0.168400
     33 CAL          1.1810    -1.4620    -3.7270 cd         1 BI2      -0.066100
     34 HBD1         3.2180    -0.4000     6.1940 h1         1 BI2       0.032033
     35 HBD2         2.3960    -1.9630     6.2730 h1         1 BI2       0.032033
     36 HBD3         3.1890    -1.4650     4.7850 h1         1 BI2       0.032033
     37 HBG1         0.4840    -0.8310     7.0520 h1         1 BI2       0.055700
     38 HBG2        -0.5620    -0.0690     5.8640 h1         1 BI2       0.055700
     39 HBF1         1.8100     1.2180     7.2800 hc         1 BI2       0.049700
     40 HBF2         0.1900     1.8750     7.1020 hc         1 BI2       0.049700
     41 HBE1         2.2990     2.4410     5.3140 hc         1 BI2       0.050200
     42 HBE2         0.6110     2.5440     4.8580 hc         1 BI2       0.050200
     43 HBB          2.5380     0.6060     3.8760 h1         1 BI2       0.052700
     44 HBA1         0.6170     1.5890     2.6100 hc         1 BI2       0.055700
     45 HBA2        -0.4940     0.6400     3.5790 hc         1 BI2       0.055700
     46 HAY1         0.7400    -1.4540     2.7990 h1         1 BI2       0.068200
     47 HAY2         1.6810    -0.4460     1.7150 h1         1 BI2       0.068200
     48 HAW          0.6850     0.3000    -0.3910 h4         1 BI2       0.177000
     49 HAF         -1.5070    -1.8360     3.4710 ha         1 BI2       0.140000
     50 HAA         -3.8180    -2.7140     3.3510 ha         1 BI2       0.127000
     51 HAB         -5.1220    -2.5330     1.2660 ha         1 BI2       0.128000
     52 HAC         -4.1960    -1.4570    -0.7200 ha         1 BI2       0.142000
     53 HAU         -3.5590     1.0220    -4.5620 hn         1 BI2       0.347500
     54 HAP          0.9210     2.3390    -1.9800 ha         1 BI2       0.137000
     55 HAQ          3.1540     3.2530    -1.4500 ha         1 BI2       0.130000
     56 HAR          5.1960     1.9700    -1.9520 ha         1 BI2       0.129000
     57 HAS          5.0690    -0.2670    -2.9970 ha         1 BI2       0.132000
     58 HAO          3.1640    -2.1250    -3.9470 hn         1 BI2       0.302700
     59 HAL          0.6940    -2.3250    -4.1530 h4         1 BI2       0.170000
@<TRIPOS>BOND
     1     1     2 1   
     2     1    34 1   
     3     1    35 1   
     4     1    36 1   
     5     2     3 1   
     6     2     6 1   
     7     3     4 1   
     8     3    37 1   
     9     3    38 1   
    10     4     5 1   
    11     4    39 1   
    12     4    40 1   
    13     5     6 1   
    14     5    41 1   
    15     5    42 1   
    16     6     7 1   
    17     6    43 1   
    18     7     8 1   
    19     7    44 1   
    20     7    45 1   
    21     8     9 1   
    22     8    46 1   
    23     8    47 1   
    24     9    10 1   
    25     9    11 1   
    26    10    17 2   
    27    10    48 1   
    28    11    12 ar  
    29    11    16 ar  
    30    12    13 ar  
    31    12    49 1   
    32    13    14 ar  
    33    13    50 1   
    34    14    15 ar  
    35    14    51 1   
    36    15    16 ar  
    37    15    52 1   
    38    16    17 1   
    39    17    18 1   
    40    18    19 1   
    41    18    24 2   
    42    19    20 2   
    43    19    21 1   
    44    21    22 1   
    45    21    53 1   
    46    22    23 2   
    47    22    24 1   
    48    24    25 1   
    49    25    26 1   
    50    25    33 2   
    51    26    27 ar  
    52    26    31 ar  
    53    27    28 ar  
    54    27    54 1   
    55    28    29 ar  
    56    28    55 1   
    57    29    30 ar  
    58    29    56 1   
    59    30    31 ar  
    60    30    57 1   
    61    31    32 1   
    62    32    33 1   
    63    32    58 1   
    64    33    59 1   
@<TRIPOS>SUBSTRUCTURE
     1 BI2         1 TEMP              0 ****  ****    0 ROOT
