@<TRIPOS>MOLECULE
BI3
   49    53     1     0     0
SMALL
bcc


@<TRIPOS>ATOM
      1 NBC          2.4780     1.7240     6.1070 n8         1 BI3      -0.880800
      2 CBB          2.5700     0.6310     5.1510 c3         1 BI3       0.151800
      3 CBA          1.3590     0.6170     4.2300 c3         1 BI3      -0.104400
      4 CAY          1.4530    -0.5130     3.2140 c3         1 BI3       0.046300
      5 NAH          0.2960    -0.5910     2.3460 na         1 BI3      -0.050400
      6 CAW          0.1900    -0.0170     1.1250 cc         1 BI3      -0.069100
      7 CAE         -0.8990    -1.1850     2.6620 ca         1 BI3      -0.056200
      8 CAF         -1.2540    -1.9060     3.8000 ca         1 BI3      -0.143000
      9 CAA         -2.5260    -2.4430     3.8420 ca         1 BI3      -0.112000
     10 CAB         -3.4200    -2.2700     2.7730 ca         1 BI3      -0.153000
     11 CAC         -3.0650    -1.5470     1.6510 ca         1 BI3      -0.069000
     12 CAD         -1.7890    -0.9770     1.5870 ca         1 BI3      -0.064800
     13 CAG         -1.0670    -0.2140     0.6040 cd         1 BI3      -0.115200
     14 CAI         -1.5060     0.2620    -0.6880 cd         1 BI3      -0.057200
     15 CAT         -2.8430     0.9040    -0.8880 c          1 BI3       0.709700
     16 OAZ         -3.7010     1.0950    -0.0640 o          1 BI3      -0.557500
     17 NAU         -2.8990     1.2850    -2.2080 ns         1 BI3      -0.628500
     18 CAV         -1.7320     0.9700    -2.8660 c          1 BI3       0.709700
     19 OAX         -1.5110     1.1610    -4.0360 o          1 BI3      -0.558500
     20 CAJ         -0.8370     0.3250    -1.8590 cc         1 BI3      -0.072200
     21 CAK          0.4680    -0.1890    -2.2130 cc         1 BI3      -0.109200
     22 CAM          1.5140     0.4580    -2.9580 ca         1 BI3      -0.069800
     23 CAP          1.6690     1.7200    -3.5420 ca         1 BI3      -0.067000
     24 CAQ          2.8600     2.0230    -4.1730 ca         1 BI3      -0.155000
     25 CAR          3.9100     1.0920    -4.2350 ca         1 BI3      -0.109000
     26 CAS          3.7910    -0.1560    -3.6570 ca         1 BI3      -0.146000
     27 CAN          2.5890    -0.4550    -3.0180 ca         1 BI3      -0.058200
     28 NAO          2.2070    -1.5850    -2.3500 na         1 BI3      -0.166400
     29 CAL          0.9520    -1.4260    -1.8660 cd         1 BI3      -0.076100
     30 HBC1         2.5550     2.6050     5.6140 hn         1 BI3       0.339800
     31 HBC2         3.2750     1.6910     6.7290 hn         1 BI3       0.339800
     32 HBB1         3.4840     0.6570     4.5390 h1         1 BI3       0.026200
     33 HBB2         2.6030    -0.3090     5.7080 h1         1 BI3       0.026200
     34 HBA1         0.4510     0.5130     4.8300 hc         1 BI3       0.064700
     35 HBA2         1.2860     1.5710     3.6990 hc         1 BI3       0.064700
     36 HAY1         2.3330    -0.3870     2.5820 h1         1 BI3       0.056700
     37 HAY2         1.5650    -1.4750     3.7180 h1         1 BI3       0.056700
     38 HAW          1.0260     0.5130     0.6940 h4         1 BI3       0.171000
     39 HAF         -0.5620    -2.0490     4.6200 ha         1 BI3       0.132000
     40 HAA         -2.8360    -3.0110     4.7090 ha         1 BI3       0.129000
     41 HAB         -4.4050    -2.7130     2.8320 ha         1 BI3       0.130000
     42 HAC         -3.7690    -1.4330     0.8390 ha         1 BI3       0.141000
     43 HAU         -3.6900     1.7460    -2.6350 hn         1 BI3       0.348500
     44 HAP          0.8760     2.4550    -3.4980 ha         1 BI3       0.141000
     45 HAQ          2.9890     2.9960    -4.6300 ha         1 BI3       0.131000
     46 HAR          4.8290     1.3610    -4.7390 ha         1 BI3       0.129000
     47 HAS          4.6010    -0.8740    -3.6920 ha         1 BI3       0.130000
     48 HAO          2.7600    -2.4200    -2.2460 hn         1 BI3       0.301700
     49 HAL          0.4700    -2.2140    -1.3090 h4         1 BI3       0.173000
@<TRIPOS>BOND
     1     1     2 1   
     2     1    30 1   
     3     1    31 1   
     4     2     3 1   
     5     2    32 1   
     6     2    33 1   
     7     3     4 1   
     8     3    34 1   
     9     3    35 1   
    10     4     5 1   
    11     4    36 1   
    12     4    37 1   
    13     5     6 1   
    14     5     7 1   
    15     6    13 2   
    16     6    38 1   
    17     7     8 ar  
    18     7    12 ar  
    19     8     9 ar  
    20     8    39 1   
    21     9    10 ar  
    22     9    40 1   
    23    10    11 ar  
    24    10    41 1   
    25    11    12 ar  
    26    11    42 1   
    27    12    13 1   
    28    13    14 1   
    29    14    15 1   
    30    14    20 2   
    31    15    16 2   
    32    15    17 1   
    33    17    18 1   
    34    17    43 1   
    35    18    19 2   
    36    18    20 1   
    37    20    21 1   
    38    21    22 1   
    39    21    29 2   
    40    22    23 ar  
    41    22    27 ar  
    42    23    24 ar  
    43    23    44 1   
    44    24    25 ar  
    45    24    45 1   
    46    25    26 ar  
    47    25    46 1   
    48    26    27 ar  
    49    26    47 1   
    50    27    28 1   
    51    28    29 1   
    52    28    48 1   
    53    29    49 1   
@<TRIPOS>SUBSTRUCTURE
     1 BI3         1 TEMP              0 ****  ****    0 ROOT
