@<TRIPOS>MOLECULE
BI3
   49    53     1     0     0
SMALL
No Charge or Current Charge


@<TRIPOS>ATOM
      1 NBC          2.5160     1.7240     6.0330 n8         1 BI3      -0.991200
      2 CBB          2.5900     0.5780     5.1100 c3         1 BI3       0.151800
      3 CBA          1.3740     0.5380     4.1680 c3         1 BI3      -0.104400
      4 CAY          1.4200    -0.6570     3.1940 c3         1 BI3       0.075600
      5 NAH          0.2630    -0.7030     2.2830 na         1 BI3      -0.079700
      6 CAW          0.2010    -0.1890     0.9770 cc         1 BI3      -0.119100
      7 CAE         -0.9630    -1.2370     2.6570 ca         1 BI3      -0.056200
      8 CAF         -1.3390    -1.8560     3.8610 ca         1 BI3      -0.125000
      9 CAA         -2.6530    -2.3590     3.9670 ca         1 BI3      -0.094000
     10 CAB         -3.5470    -2.2530     2.8770 ca         1 BI3      -0.135000
     11 CAC         -3.1430    -1.6300     1.6780 ca         1 BI3      -0.051000
     12 CAD         -1.8430    -1.1040     1.6130 ca         1 BI3      -0.064800
     13 CAG         -1.1000    -0.4480     0.5500 cd         1 BI3      -0.115200
     14 CAI         -1.5830     0.1450    -0.6890 cd         1 BI3      -0.057200
     15 CAT         -2.9570     0.6370    -0.9730 c          1 BI3       0.567200
     16 OAZ         -3.9760     0.5900    -0.3040 o          1 BI3      -0.482000
     17 NAU         -2.8330     1.2710    -2.1580 ns         1 BI3      -0.494500
     18 CAV         -1.6100     1.2680    -2.7310 c          1 BI3       0.567200
     19 OAX         -1.3580     1.7300    -3.8310 o          1 BI3      -0.483000
     20 CAJ         -0.7730     0.4950    -1.7800 cc         1 BI3      -0.072200
     21 CAK          0.5740     0.0240    -2.0690 cc         1 BI3      -0.109200
     22 CAM          1.5960     0.5520    -2.9450 ca         1 BI3      -0.069800
     23 CAP          1.6940     1.7650    -3.6510 ca         1 BI3      -0.049000
     24 CAQ          2.8610     2.0100    -4.4040 ca         1 BI3      -0.137000
     25 CAR          3.9100     1.0640    -4.4260 ca         1 BI3      -0.091000
     26 CAS          3.8030    -0.1270    -3.6800 ca         1 BI3      -0.128000
     27 CAN          2.6320    -0.3460    -2.9420 ca         1 BI3      -0.058200
     28 NAO          2.3550    -1.4250    -2.1250 na         1 BI3      -0.216700
     29 CAL          1.0710    -1.1870    -1.5850 cd         1 BI3      -0.126100
     30 HBC1         2.5700     2.5950     5.4910 hn         1 BI3       0.395000
     31 HBC2         3.3690     1.7470     6.6070 hn         1 BI3       0.395000
     32 HBB1         3.5150     0.6580     4.5210 h1         1 BI3       0.026200
     33 HBB2         2.6320    -0.3470     5.7010 h1         1 BI3       0.026200
     34 HBA1         0.4550     0.4810     4.7650 hc         1 BI3       0.064700
     35 HBA2         1.3270     1.4690     3.5900 hc         1 BI3       0.064700
     36 HAY1         2.3330    -0.5930     2.5880 h1         1 BI3       0.056700
     37 HAY2         1.4670    -1.5960     3.7590 h1         1 BI3       0.056700
     38 HAW          1.0220     0.3560     0.5240 h4         1 BI3       0.221000
     39 HAF         -0.6440    -1.9550     4.6910 ha         1 BI3       0.114000
     40 HAA         -2.9730    -2.8450     4.8860 ha         1 BI3       0.111000
     41 HAB         -4.5500    -2.6650     2.9590 ha         1 BI3       0.112000
     42 HAC         -3.8190    -1.5900     0.8300 ha         1 BI3       0.123000
     43 HAU         -3.6210     1.7190    -2.6010 hn         1 BI3       0.348500
     44 HAP          0.9190     2.5220    -3.6010 ha         1 BI3       0.123000
     45 HAQ          2.9590     2.9390    -4.9610 ha         1 BI3       0.113000
     46 HAR          4.8090     1.2620    -5.0060 ha         1 BI3       0.111000
     47 HAS          4.6140    -0.8520    -3.6720 ha         1 BI3       0.112000
     48 HAO          2.9460    -2.2350    -1.9640 hn         1 BI3       0.352000
     49 HAL          0.5880    -1.9230    -0.9460 h4         1 BI3       0.223000
@<TRIPOS>BOND
     1     1     2 1   
     2     1    30 1   
     3     1    31 1   
     4     2     3 1   
     5     2    32 1   
     6     2    33 1   
     7     3     4 1   
     8     3    34 1   
     9     3    35 1   
    10     4     5 1   
    11     4    36 1   
    12     4    37 1   
    13     5     6 1   
    14     5     7 1   
    15     6    13 2   
    16     6    38 1   
    17     7     8 ar  
    18     7    12 ar  
    19     8     9 ar  
    20     8    39 1   
    21     9    10 ar  
    22     9    40 1   
    23    10    11 ar  
    24    10    41 1   
    25    11    12 ar  
    26    11    42 1   
    27    12    13 1   
    28    13    14 1   
    29    14    15 1   
    30    14    20 2   
    31    15    16 2   
    32    15    17 1   
    33    17    18 1   
    34    17    43 1   
    35    18    19 2   
    36    18    20 1   
    37    20    21 1   
    38    21    22 1   
    39    21    29 2   
    40    22    23 ar  
    41    22    27 ar  
    42    23    24 ar  
    43    23    44 1   
    44    24    25 ar  
    45    24    45 1   
    46    25    26 ar  
    47    25    46 1   
    48    26    27 ar  
    49    26    47 1   
    50    27    28 1   
    51    28    29 1   
    52    28    48 1   
    53    29    49 1   
@<TRIPOS>SUBSTRUCTURE
     1 BI3         1 TEMP              0 ****  ****    0 ROOT
