@<TRIPOS>MOLECULE
BI4
   59    64     1     0     0
SMALL
No Charge or Current Charge


@<TRIPOS>ATOM
      1 O32         -5.1670     1.0600     0.5190 o          1 BI4      -0.483000
      2 C18         -4.3360     0.1710     0.4320 c          1 BI4       0.567200
      3 C17         -2.8810     0.2170     0.1400 cc         1 BI4      -0.064200
      4 C16         -2.1560     1.4240    -0.2310 cc         1 BI4      -0.113200
      5 C15         -2.4010     2.8130     0.0890 ca         1 BI4      -0.068800
      6 C14         -3.2880     3.4280     0.9910 ca         1 BI4      -0.050000
      7 C13         -3.2580     4.8330     1.1070 ca         1 BI4      -0.137000
      8 C12         -2.3410     5.5950     0.3490 ca         1 BI4      -0.092000
      9 C10         -1.4890     3.5550    -0.6170 ca         1 BI4      -0.059200
     10 C11         -1.4360     4.9520    -0.5180 ca         1 BI4      -0.127000
     11 N9          -0.6680     2.7450    -1.3780 na         1 BI4      -0.213700
     12 C8          -1.0910     1.4190    -1.1330 cd         1 BI4      -0.124100
     13 N19         -4.6160    -1.1490     0.4780 ns         1 BI4      -0.494500
     14 C20         -3.5890    -2.0020     0.2760 c          1 BI4       0.567200
     15 O33         -3.6620    -3.2180     0.3330 o          1 BI4      -0.483000
     16 C21         -2.4170    -1.1060     0.0860 cd         1 BI4      -0.065200
     17 C22         -1.0160    -1.4940     0.0170 cd         1 BI4      -0.113200
     18 C7          -0.0420    -0.6600     0.5630 cc         1 BI4      -0.120100
     19 C23         -0.4250    -2.7750    -0.3320 ca         1 BI4      -0.066800
     20 C5           0.9020    -2.6770     0.0000 ca         1 BI4      -0.057200
     21 C4           1.7990    -3.7340    -0.2310 ca         1 BI4      -0.127000
     22 C3           1.2980    -4.9090    -0.8300 ca         1 BI4      -0.094000
     23 C2          -0.0630    -4.9970    -1.2010 ca         1 BI4      -0.136000
     24 C1          -0.9410    -3.9180    -0.9640 ca         1 BI4      -0.050000
     25 N6           1.1420    -1.4150     0.5280 na         1 BI4      -0.080700
     26 C24          2.4730    -0.9870     0.9900 c3         1 BI4       0.074600
     27 C25          3.3530    -0.4400    -0.1540 c3         1 BI4      -0.095400
     28 C26          4.7740    -0.0160     0.2930 c5         1 BI4       0.172500
     29 C27          4.7900     1.1330     1.3400 c5         1 BI4      -0.080400
     30 C28          6.2400     1.6960     1.2420 c5         1 BI4      -0.079400
     31 C29          6.8250     1.0160    -0.0260 c5         1 BI4       0.157800
     32 N30          5.6120     0.5960    -0.7620 n3         1 BI4      -0.714600
     33 C31          5.8820    -0.2370    -1.9550 c3         1 BI4       0.151100
     34 H14         -3.9610     2.8510     1.6160 ha         1 BI4       0.124000
     35 H13         -3.9370     5.3320     1.7950 ha         1 BI4       0.113000
     36 H12         -2.3220     6.6780     0.4480 ha         1 BI4       0.111000
     37 H11         -0.7100     5.5270    -1.0890 ha         1 BI4       0.113000
     38 HN9          0.0740     3.0440    -2.0040 hn         1 BI4       0.354000
     39 H8          -0.6400     0.5820    -1.6600 h4         1 BI4       0.224000
     40 H19         -5.5530    -1.4830     0.6460 hn         1 BI4       0.348500
     41 H7          -0.0950     0.3230     1.0170 h4         1 BI4       0.222000
     42 H4           2.8510    -3.6560     0.0310 ha         1 BI4       0.112000
     43 H3           1.9680    -5.7440    -1.0240 ha         1 BI4       0.110000
     44 H2          -0.4350    -5.8980    -1.6850 ha         1 BI4       0.112000
     45 H1          -1.9740    -3.9730    -1.2910 ha         1 BI4       0.124000
     46 H241         2.9750    -1.8330     1.4730 h1         1 BI4       0.061200
     47 H242         2.3360    -0.2070     1.7500 h1         1 BI4       0.061200
     48 H251         2.8420     0.4110    -0.6180 hc         1 BI4       0.060200
     49 H252         3.4280    -1.2160    -0.9240 hc         1 BI4       0.060200
     50 H26          5.2730    -0.9060     0.7040 h1         1 BI4       0.023700
     51 H271         4.5510     0.7770     2.3480 hc         1 BI4       0.047700
     52 H272         4.0560     1.9080     1.0880 hc         1 BI4       0.047700
     53 H281         6.8380     1.4580     2.1290 hc         1 BI4       0.048700
     54 H282         6.2310     2.7880     1.1420 hc         1 BI4       0.048700
     55 H291         7.4400     0.1470     0.2490 h1         1 BI4       0.037700
     56 H292         7.4530     1.7030    -0.6110 h1         1 BI4       0.037700
     57 H311         6.3490    -1.1890    -1.6710 h1         1 BI4       0.032033
     58 H312         4.9550    -0.4540    -2.5010 h1         1 BI4       0.032033
     59 H313         6.5600     0.2860    -2.6430 h1         1 BI4       0.032033
@<TRIPOS>BOND
     1     1     2 2   
     2     2     3 1   
     3     2    13 1   
     4     3     4 1   
     5     3    16 2   
     6     4     5 1   
     7     4    12 2   
     8     5     6 ar  
     9     5     9 ar  
    10     6     7 ar  
    11     6    34 1   
    12     7     8 ar  
    13     7    35 1   
    14     8    10 ar  
    15     8    36 1   
    16     9    10 ar  
    17     9    11 1   
    18    10    37 1   
    19    11    12 1   
    20    11    38 1   
    21    12    39 1   
    22    13    14 1   
    23    13    40 1   
    24    14    15 2   
    25    14    16 1   
    26    16    17 1   
    27    17    18 2   
    28    17    19 1   
    29    18    25 1   
    30    18    41 1   
    31    19    20 ar  
    32    19    24 ar  
    33    20    21 ar  
    34    20    25 1   
    35    21    22 ar  
    36    21    42 1   
    37    22    23 ar  
    38    22    43 1   
    39    23    24 ar  
    40    23    44 1   
    41    24    45 1   
    42    25    26 1   
    43    26    27 1   
    44    26    46 1   
    45    26    47 1   
    46    27    28 1   
    47    27    48 1   
    48    27    49 1   
    49    28    29 1   
    50    28    32 1   
    51    28    50 1   
    52    29    30 1   
    53    29    51 1   
    54    29    52 1   
    55    30    31 1   
    56    30    53 1   
    57    30    54 1   
    58    31    32 1   
    59    31    55 1   
    60    31    56 1   
    61    32    33 1   
    62    33    57 1   
    63    33    58 1   
    64    33    59 1   
@<TRIPOS>SUBSTRUCTURE
     1 BI4         1 TEMP              0 ****  ****    0 ROOT
