@<TRIPOS>MOLECULE
BI4
   59    64     1     0     0
SMALL
abcg2


@<TRIPOS>ATOM
      1 O32         -5.0820     1.0570    -0.1080 o          1 BI4      -0.483000
      2 C18         -4.3080     0.1570     0.1020 c          1 BI4       0.567200
      3 C17         -2.8170     0.1840    -0.0180 cc         1 BI4      -0.064200
      4 C16         -2.0970     1.3640    -0.4410 cc         1 BI4      -0.113200
      5 C15         -2.2590     2.7270    -0.0100 ca         1 BI4      -0.068800
      6 C14         -3.0820     3.3760     0.9190 ca         1 BI4      -0.050000
      7 C13         -2.9350     4.7350     1.1080 ca         1 BI4      -0.137000
      8 C12         -1.9790     5.4730     0.3900 ca         1 BI4      -0.092000
      9 C10         -1.2960     3.4870    -0.7070 ca         1 BI4      -0.059200
     10 C11         -1.1460     4.8600    -0.5240 ca         1 BI4      -0.127000
     11 N9          -0.6000     2.6300    -1.5140 na         1 BI4      -0.213700
     12 C8          -1.0680     1.3710    -1.3530 cd         1 BI4      -0.124100
     13 N19         -4.6470    -1.1250     0.4680 ns         1 BI4      -0.494500
     14 C20         -3.5310    -1.9210     0.5830 c          1 BI4       0.567200
     15 O33         -3.5230    -3.0780     0.9220 o          1 BI4      -0.483000
     16 C21         -2.3580    -1.0580     0.2450 cd         1 BI4      -0.065200
     17 C22         -0.9980    -1.5440     0.2990 cd         1 BI4      -0.113200
     18 C7           0.0570    -0.8620     0.8540 cc         1 BI4      -0.120100
     19 C23         -0.4510    -2.7650    -0.2250 ca         1 BI4      -0.066800
     20 C5           0.9320    -2.7360     0.0550 ca         1 BI4      -0.057200
     21 C4           1.7960    -3.7570    -0.3370 ca         1 BI4      -0.127000
     22 C3           1.2520    -4.8220    -1.0270 ca         1 BI4      -0.094000
     23 C2          -0.1190    -4.8670    -1.3250 ca         1 BI4      -0.136000
     24 C1          -0.9720    -3.8540    -0.9330 ca         1 BI4      -0.050000
     25 N6           1.2050    -1.5720     0.7280 na         1 BI4      -0.080700
     26 C24          2.5210    -1.1040     1.1050 c3         1 BI4       0.074600
     27 C25          3.2390    -0.4200    -0.0530 c3         1 BI4      -0.095400
     28 C26          4.6470     0.0070     0.3330 c5         1 BI4       0.172500
     29 C27          4.6890     1.0480     1.4560 c5         1 BI4      -0.080400
     30 C28          5.9670     1.8640     1.1850 c5         1 BI4      -0.079400
     31 C29          6.5070     1.2920    -0.1280 c5         1 BI4       0.157800
     32 N30          5.3520     0.6710    -0.7530 n3         1 BI4      -0.714600
     33 C31          5.7120    -0.1880    -1.8550 c3         1 BI4       0.151100
     34 H14         -3.8210     2.8260     1.4840 ha         1 BI4       0.124000
     35 H13         -3.5660     5.2470     1.8230 ha         1 BI4       0.113000
     36 H12         -1.8910     6.5380     0.5610 ha         1 BI4       0.111000
     37 H11         -0.4010     5.4230    -1.0730 ha         1 BI4       0.113000
     38 HN9          0.1410     2.8890    -2.1460 hn         1 BI4       0.354000
     39 H8          -0.6450     0.5490    -1.9080 h4         1 BI4       0.224000
     40 H19         -5.5920    -1.4410     0.6290 hn         1 BI4       0.348500
     41 H7           0.0580     0.0970     1.3500 h4         1 BI4       0.222000
     42 H4           2.8560    -3.7200    -0.1180 ha         1 BI4       0.112000
     43 H3           1.8940    -5.6310    -1.3490 ha         1 BI4       0.110000
     44 H2          -0.5130    -5.7130    -1.8730 ha         1 BI4       0.112000
     45 H1          -2.0230    -3.9060    -1.1810 ha         1 BI4       0.124000
     46 H241         3.1000    -1.9570     1.4680 h1         1 BI4       0.061200
     47 H242         2.4020    -0.4250     1.9490 h1         1 BI4       0.061200
     48 H251         2.6700     0.4590    -0.3730 hc         1 BI4       0.060200
     49 H252         3.2700    -1.1090    -0.9010 hc         1 BI4       0.060200
     50 H26          5.2070    -0.8920     0.6570 h1         1 BI4       0.023700
     51 H271         4.6910     0.5790     2.4400 hc         1 BI4       0.047700
     52 H272         3.8040     1.6870     1.4030 hc         1 BI4       0.047700
     53 H281         6.6990     1.7670     1.9860 hc         1 BI4       0.048700
     54 H282         5.7360     2.9240     1.0890 hc         1 BI4       0.048700
     55 H291         7.2970     0.5500     0.0770 h1         1 BI4       0.037700
     56 H292         6.9430     2.0500    -0.7810 h1         1 BI4       0.037700
     57 H311         6.3350    -1.0430    -1.5460 h1         1 BI4       0.032033
     58 H312         4.8250    -0.5820    -2.3530 h1         1 BI4       0.032033
     59 H313         6.2730     0.3800    -2.5990 h1         1 BI4       0.032033
@<TRIPOS>BOND
     1     1     2 2   
     2     2     3 1   
     3     2    13 1   
     4     3     4 1   
     5     3    16 2   
     6     4     5 1   
     7     4    12 2   
     8     5     6 ar  
     9     5     9 ar  
    10     6     7 ar  
    11     6    34 1   
    12     7     8 ar  
    13     7    35 1   
    14     8    10 ar  
    15     8    36 1   
    16     9    10 ar  
    17     9    11 1   
    18    10    37 1   
    19    11    12 1   
    20    11    38 1   
    21    12    39 1   
    22    13    14 1   
    23    13    40 1   
    24    14    15 2   
    25    14    16 1   
    26    16    17 1   
    27    17    18 2   
    28    17    19 1   
    29    18    25 1   
    30    18    41 1   
    31    19    20 ar  
    32    19    24 ar  
    33    20    21 ar  
    34    20    25 1   
    35    21    22 ar  
    36    21    42 1   
    37    22    23 ar  
    38    22    43 1   
    39    23    24 ar  
    40    23    44 1   
    41    24    45 1   
    42    25    26 1   
    43    26    27 1   
    44    26    46 1   
    45    26    47 1   
    46    27    28 1   
    47    27    48 1   
    48    27    49 1   
    49    28    29 1   
    50    28    32 1   
    51    28    50 1   
    52    29    30 1   
    53    29    51 1   
    54    29    52 1   
    55    30    31 1   
    56    30    53 1   
    57    30    54 1   
    58    31    32 1   
    59    31    55 1   
    60    31    56 1   
    61    32    33 1   
    62    33    57 1   
    63    33    58 1   
    64    33    59 1   
@<TRIPOS>SUBSTRUCTURE
     1 BI4         1 TEMP              0 ****  ****    0 ROOT
