@<TRIPOS>MOLECULE
BI5
   39    41     1     0     0
SMALL
bcc


@<TRIPOS>ATOM
      1 N1           4.5470     0.8120     0.6290 nb         1 BI5      -0.697000
      2 C1           4.9070    -0.3910     0.2080 ca         1 BI5       0.403600
      3 C2           6.2400    -0.7870     0.1390 ca         1 BI5      -0.240300
      4 C3           7.2200     0.1100     0.5230 ca         1 BI5      -0.083000
      5 C4           6.8410     1.3720     0.9650 ca         1 BI5      -0.248300
      6 C5           5.4920     1.6730     0.9990 ca         1 BI5       0.415200
      7 C6           3.8170    -1.3430    -0.2140 c3         1 BI5       0.053700
      8 N2           2.5240    -0.7510    -0.0010 ns         1 BI5      -0.565900
      9 C7           1.3850    -1.3850    -0.3090 c          1 BI5       0.685700
     10 C8           0.1200    -0.6540    -0.0100 ca         1 BI5      -0.182600
     11 C9          -1.0350    -1.0160    -0.6960 ca         1 BI5      -0.054500
     12 C10         -2.2430    -0.3800    -0.4640 ca         1 BI5      -0.194500
     13 C11         -2.3090     0.6330     0.4880 ca         1 BI5       0.159100
     14 C12         -1.1680     0.9950     1.2000 ca         1 BI5      -0.194500
     15 C13          0.0310     0.3560     0.9490 ca         1 BI5      -0.054500
     16 O1          -3.4430     1.3090     0.7950 os         1 BI5      -0.254200
     17 C14         -4.5920     1.0630     0.0800 ca         1 BI5       0.093100
     18 C15         -5.5290     0.1790     0.5910 ca         1 BI5      -0.133500
     19 C16         -6.7130    -0.0290    -0.1050 ca         1 BI5      -0.119500
     20 C17         -6.9490     0.6370    -1.3010 ca         1 BI5      -0.127000
     21 C18         -5.9980     1.5170    -1.8010 ca         1 BI5      -0.119500
     22 C19         -4.8120     1.7340    -1.1130 ca         1 BI5      -0.133500
     23 O2           1.3740    -2.5020    -0.8160 o          1 BI5      -0.619100
     24 H2           6.4980    -1.7780    -0.2110 ha         1 BI5       0.146000
     25 H3           8.2640    -0.1690     0.4800 ha         1 BI5       0.140000
     26 H4           7.5740     2.1050     1.2750 ha         1 BI5       0.145000
     27 H5           5.1510     2.6440     1.3370 h4         1 BI5       0.020100
     28 H61          3.9150    -2.2750     0.3510 h1         1 BI5       0.062700
     29 H62          3.9610    -1.6050    -1.2670 h1         1 BI5       0.062700
     30 HN2          2.5330     0.2090     0.3140 hn         1 BI5       0.347500
     31 H9          -0.9950    -1.8060    -1.4330 ha         1 BI5       0.145000
     32 H10         -3.1170    -0.6820    -1.0250 ha         1 BI5       0.148500
     33 H12         -1.2260     1.7700     1.9530 ha         1 BI5       0.148500
     34 H13          0.8930     0.6460     1.5370 ha         1 BI5       0.145000
     35 H15         -5.3390    -0.3360     1.5240 ha         1 BI5       0.147500
     36 H16         -7.4510    -0.7140     0.2910 ha         1 BI5       0.135500
     37 H17         -7.8740     0.4740    -1.8390 ha         1 BI5       0.135000
     38 H18         -6.1780     2.0390    -2.7320 ha         1 BI5       0.135500
     39 H19         -4.0690     2.4220    -1.4970 ha         1 BI5       0.147500
@<TRIPOS>BOND
     1     1     2 ar  
     2     1     6 ar  
     3     2     3 ar  
     4     2     7 1   
     5     3     4 ar  
     6     3    24 1   
     7     4     5 ar  
     8     4    25 1   
     9     5     6 ar  
    10     5    26 1   
    11     6    27 1   
    12     7     8 1   
    13     7    28 1   
    14     7    29 1   
    15     8     9 1   
    16     8    30 1   
    17     9    10 1   
    18     9    23 2   
    19    10    11 ar  
    20    10    15 ar  
    21    11    12 ar  
    22    11    31 1   
    23    12    13 ar  
    24    12    32 1   
    25    13    14 ar  
    26    13    16 1   
    27    14    15 ar  
    28    14    33 1   
    29    15    34 1   
    30    16    17 1   
    31    17    18 ar  
    32    17    22 ar  
    33    18    19 ar  
    34    18    35 1   
    35    19    20 ar  
    36    19    36 1   
    37    20    21 ar  
    38    20    37 1   
    39    21    22 ar  
    40    21    38 1   
    41    22    39 1   
@<TRIPOS>SUBSTRUCTURE
     1 BI5         1 TEMP              0 ****  ****    0 ROOT
