@<TRIPOS>MOLECULE
BI5
   39    41     1     0     0
SMALL
No Charge or Current Charge


@<TRIPOS>ATOM
      1 N1           4.6260     0.7980     0.9050 nb         1 BI5      -0.697000
      2 C1           5.0320    -0.2520     0.1410 ca         1 BI5       0.338300
      3 C2           6.3920    -0.5320    -0.0900 ca         1 BI5      -0.157000
      4 C3           7.3750     0.2910     0.4820 ca         1 BI5      -0.065000
      5 C4           6.9520     1.3730     1.2700 ca         1 BI5      -0.165000
      6 C5           5.5760     1.5900     1.4550 ca         1 BI5       0.349900
      7 C6           3.9470    -1.1430    -0.4780 c3         1 BI5       0.053700
      8 N2           2.5710    -0.7300    -0.1560 ns         1 BI5      -0.498900
      9 C7           1.4320    -1.3650    -0.5910 c          1 BI5       0.618700
     10 C8           0.1090    -0.7780    -0.1450 ca         1 BI5      -0.182600
     11 C9          -1.0950    -1.3900    -0.5640 ca         1 BI5      -0.036500
     12 C10         -2.3400    -0.8720    -0.1690 ca         1 BI5      -0.176500
     13 C11         -2.4010     0.2730     0.6440 ca         1 BI5       0.159100
     14 C12         -1.2160     0.8820     1.0770 ca         1 BI5      -0.176500
     15 C13          0.0330     0.3680     0.6860 ca         1 BI5      -0.036500
     16 O1          -3.6080     0.7920     1.0560 os         1 BI5      -0.254200
     17 C14         -4.7170     0.8440     0.2420 ca         1 BI5       0.093100
     18 C15         -5.9850     0.6210     0.8060 ca         1 BI5      -0.115500
     19 C16         -7.1360     0.6820     0.0000 ca         1 BI5      -0.101500
     20 C17         -7.0200     0.9750    -1.3700 ca         1 BI5      -0.109000
     21 C18         -5.7540     1.2110    -1.9340 ca         1 BI5      -0.101500
     22 C19         -4.6020     1.1510    -1.1290 ca         1 BI5      -0.115500
     23 O2           1.4990    -2.3560    -1.3050 o          1 BI5      -0.619100
     24 H2           6.6780    -1.3810    -0.7070 ha         1 BI5       0.128000
     25 H3           8.4330     0.0970     0.3200 ha         1 BI5       0.122000
     26 H4           7.6740     2.0390     1.7340 ha         1 BI5       0.127000
     27 H5           5.2220     2.4230     2.0620 h4         1 BI5       0.020100
     28 H61          4.0950    -2.1730    -0.1270 h1         1 BI5       0.062700
     29 H62          4.0680    -1.1390    -1.5690 h1         1 BI5       0.062700
     30 HN2          2.4590     0.0870     0.4320 hn         1 BI5       0.347500
     31 H9          -1.0700    -2.2760    -1.1970 ha         1 BI5       0.127000
     32 H10         -3.2530    -1.3640    -0.4920 ha         1 BI5       0.130500
     33 H12         -1.2650     1.7590     1.7170 ha         1 BI5       0.130500
     34 H13          0.9280     0.8730     1.0400 ha         1 BI5       0.127000
     35 H15         -6.0740     0.3980     1.8660 ha         1 BI5       0.129500
     36 H16         -8.1170     0.5050     0.4380 ha         1 BI5       0.117500
     37 H17         -7.9100     1.0230    -1.9930 ha         1 BI5       0.117000
     38 H18         -5.6650     1.4450    -2.9940 ha         1 BI5       0.117500
     39 H19         -3.6270     1.3450    -1.5690 ha         1 BI5       0.129500
@<TRIPOS>BOND
     1     1     2 ar  
     2     1     6 ar  
     3     2     3 ar  
     4     2     7 1   
     5     3     4 ar  
     6     3    24 1   
     7     4     5 ar  
     8     4    25 1   
     9     5     6 ar  
    10     5    26 1   
    11     6    27 1   
    12     7     8 1   
    13     7    28 1   
    14     7    29 1   
    15     8     9 1   
    16     8    30 1   
    17     9    10 1   
    18     9    23 2   
    19    10    11 ar  
    20    10    15 ar  
    21    11    12 ar  
    22    11    31 1   
    23    12    13 ar  
    24    12    32 1   
    25    13    14 ar  
    26    13    16 1   
    27    14    15 ar  
    28    14    33 1   
    29    15    34 1   
    30    16    17 1   
    31    17    18 ar  
    32    17    22 ar  
    33    18    19 ar  
    34    18    35 1   
    35    19    20 ar  
    36    19    36 1   
    37    20    21 ar  
    38    20    37 1   
    39    21    22 ar  
    40    21    38 1   
    41    22    39 1   
@<TRIPOS>SUBSTRUCTURE
     1 BI5         1 TEMP              0 ****  ****    0 ROOT
