@<TRIPOS>MOLECULE
BI6
   70    73     1     0     0
SMALL
abcg2


@<TRIPOS>ATOM
      1 C49        110.2020    98.6740    62.0680 c3         1 BI6      -0.047200
      2 C9         109.5100    97.5430    62.8240 c3         1 BI6      -0.083400
      3 C10        108.2180    97.0040    62.2070 c5         1 BI6       0.128700
      4 N3         108.1570    96.8890    60.7390 n          1 BI6      -0.384800
      5 C6         109.0420    96.3450    59.8950 c          1 BI6       0.566000
      6 C5         110.3940    95.9150    60.4460 c3         1 BI6       0.084900
      7 N2         110.8770    94.8300    59.6300 ns         1 BI6      -0.505900
      8 C4         111.7840    93.9440    60.0650 c          1 BI6       0.608100
      9 C1         112.1680    92.8750    59.0470 c3         1 BI6       0.030500
     10 C2         111.6720    91.5050    59.5200 c3         1 BI6      -0.064400
     11 C3         110.1600    91.4390    59.6860 c3         1 BI6      -0.094100
     12 N1         113.6100    92.8560    58.9480 n2         1 BI6      -0.554900
     13 O1         112.2550    93.9630    61.1920 o          1 BI6      -0.580100
     14 C7         111.3110    97.1210    60.3640 c2         1 BI6      -0.240200
     15 C8         111.1960    98.2700    61.0230 c2         1 BI6      -0.183200
     16 O2         108.8090    96.2370    58.6960 o          1 BI6      -0.587000
     17 C13        106.8720    97.2890    60.1900 c5         1 BI6       0.026700
     18 C14        107.0180    98.5210    59.3060 c          1 BI6       0.600100
     19 O3         107.8150    99.4120    59.5450 o          1 BI6      -0.587100
     20 N4         106.1550    98.5660    58.2770 ns         1 BI6      -0.500900
     21 C15        106.1150    99.6750    57.3450 c3         1 BI6       0.211300
     22 C17        105.4150   100.9000    57.8970 ca         1 BI6      -0.097800
     23 C18        105.6510   102.1310    57.2890 ca         1 BI6      -0.094750
     24 C26        114.1160    93.0030    57.8040 c2         1 BI6       0.423100
     25 C19        105.0060   103.2750    57.7320 ca         1 BI6      -0.112250
     26 C20        104.1130   103.2040    58.7950 ca         1 BI6      -0.105000
     27 C21        103.8750   101.9820    59.4070 ca         1 BI6      -0.112250
     28 C22        104.5230   100.8360    58.9600 ca         1 BI6      -0.094750
     29 C16        105.4890    99.1960    56.0510 ca         1 BI6      -0.097800
     30 C23        104.1070    99.1320    55.8960 ca         1 BI6      -0.094750
     31 C24        103.5530    98.6490    54.7190 ca         1 BI6      -0.112250
     32 C25        104.3750    98.2280    53.6810 ca         1 BI6      -0.105000
     33 C27        106.3060    98.7680    55.0090 ca         1 BI6      -0.094750
     34 C28        105.7540    98.2900    53.8280 ca         1 BI6      -0.112250
     35 C12        106.0140    97.5770    61.4280 c5         1 BI6      -0.081400
     36 C11        107.0340    97.9230    62.4980 c5         1 BI6      -0.095400
     37 H491       109.4630    99.3350    61.6020 hc         1 BI6       0.063700
     38 H492       110.7310    99.2990    62.7910 hc         1 BI6       0.063700
     39 H91C       110.2230    96.7430    63.0240 hc         1 BI6       0.052700
     40 H92C       109.2250    97.9100    63.8130 hc         1 BI6       0.052700
     41 H8         111.9210    99.0380    60.7740 ha         1 BI6       0.173000
     42 H10        108.0140    96.0180    62.6410 h1         1 BI6       0.048700
     43 H111       106.6600    97.7690    63.5100 hc         1 BI6       0.064700
     44 H112       107.3440    98.9670    62.4150 hc         1 BI6       0.064700
     45 H13        106.4380    96.4730    59.6060 h1         1 BI6       0.072700
     46 H5         110.3030    95.5440    61.4660 h1         1 BI6       0.092700
     47 H2         110.5690    94.8070    58.6690 hn         1 BI6       0.335500
     48 H7         112.1000    97.0280    59.6260 ha         1 BI6       0.182000
     49 H1         111.6980    93.0990    58.0770 h1         1 BI6       0.034700
     50 H21C       111.9920    90.7660    58.7810 hc         1 BI6       0.058700
     51 H22C       112.1710    91.2500    60.4570 hc         1 BI6       0.058700
     52 H31C       109.8050    92.0910    60.4850 hc         1 BI6       0.036033
     53 H32C       109.6440    91.7270    58.7690 hc         1 BI6       0.036033
     54 H33C       109.8500    90.4250    59.9350 hc         1 BI6       0.036033
     55 H261       115.1970    92.9780    57.6940 h4         1 BI6      -0.017700
     56 H262       113.5330    93.1560    56.8920 h4         1 BI6      -0.017700
     57 H121       105.2800    98.3650    61.2590 hc         1 BI6       0.057200
     58 H122       105.4670    96.6740    61.7000 hc         1 BI6       0.057200
     59 H4         105.5480    97.7800    58.1080 hn         1 BI6       0.320500
     60 H15        107.1490    99.9610    57.1270 h1         1 BI6       0.082700
     61 H18        106.3450   102.1940    56.4590 ha         1 BI6       0.115250
     62 H22        104.3270    99.8890    59.4480 ha         1 BI6       0.115250
     63 H19        105.2010   104.2240    57.2490 ha         1 BI6       0.112750
     64 H20        103.6080   104.0960    59.1430 ha         1 BI6       0.112500
     65 H21        103.1830   101.9170    60.2370 ha         1 BI6       0.112750
     66 H23        103.4550    99.4710    56.6920 ha         1 BI6       0.115250
     67 H27        107.3830    98.8130    55.1200 ha         1 BI6       0.115250
     68 H24        102.4770    98.6060    54.6100 ha         1 BI6       0.112750
     69 H25        103.9430    97.8560    52.7620 ha         1 BI6       0.112500
     70 H28        106.4020    97.9680    53.0230 ha         1 BI6       0.112750
@<TRIPOS>BOND
     1     1     2 1   
     2     1    15 1   
     3     1    37 1   
     4     1    38 1   
     5     2     3 1   
     6     2    39 1   
     7     2    40 1   
     8     3     4 1   
     9     3    36 1   
    10     3    42 1   
    11     4     5 1   
    12     4    17 1   
    13     5     6 1   
    14     5    16 2   
    15     6     7 1   
    16     6    14 1   
    17     6    46 1   
    18     7     8 1   
    19     7    47 1   
    20     8     9 1   
    21     8    13 2   
    22     9    10 1   
    23     9    12 1   
    24     9    49 1   
    25    10    11 1   
    26    10    50 1   
    27    10    51 1   
    28    11    52 1   
    29    11    53 1   
    30    11    54 1   
    31    12    24 2   
    32    14    15 2   
    33    14    48 1   
    34    15    41 1   
    35    17    18 1   
    36    17    35 1   
    37    17    45 1   
    38    18    19 2   
    39    18    20 1   
    40    20    21 1   
    41    20    59 1   
    42    21    22 1   
    43    21    29 1   
    44    21    60 1   
    45    22    23 ar  
    46    22    28 ar  
    47    23    25 ar  
    48    23    61 1   
    49    24    55 1   
    50    24    56 1   
    51    25    26 ar  
    52    25    63 1   
    53    26    27 ar  
    54    26    64 1   
    55    27    28 ar  
    56    27    65 1   
    57    28    62 1   
    58    29    30 ar  
    59    29    33 ar  
    60    30    31 ar  
    61    30    66 1   
    62    31    32 ar  
    63    31    68 1   
    64    32    34 ar  
    65    32    69 1   
    66    33    34 ar  
    67    33    67 1   
    68    34    70 1   
    69    35    36 1   
    70    35    57 1   
    71    35    58 1   
    72    36    43 1   
    73    36    44 1   
@<TRIPOS>SUBSTRUCTURE
     1 BI6         1 TEMP              0 ****  ****    0 ROOT
