@<TRIPOS>MOLECULE
BI6
   70    73     1     0     0
SMALL
No Charge or Current Charge


@<TRIPOS>ATOM
      1 C49        110.1240    98.6510    61.8860 c3         1 BI6      -0.047200
      2 C9         109.2390    97.6100    62.6100 c3         1 BI6      -0.083400
      3 C10        108.0820    96.9800    61.7810 c5         1 BI6       0.128700
      4 N3         108.2820    96.8660    60.3070 n          1 BI6      -0.384800
      5 C6         109.2840    96.0680    59.7050 c          1 BI6       0.566000
      6 C5         110.5650    95.7090    60.5200 c3         1 BI6       0.084900
      7 N2         111.2590    94.5730    59.8830 ns         1 BI6      -0.505900
      8 C4         112.0170    93.6330    60.5480 c          1 BI6       0.608100
      9 C1         112.6160    92.5100    59.6420 c3         1 BI6       0.030500
     10 C2         112.1100    91.1030    60.0490 c3         1 BI6      -0.064400
     11 C3         110.5770    90.9430    59.9620 c3         1 BI6      -0.094100
     12 N1         114.0980    92.5170    59.6470 n2         1 BI6      -0.554900
     13 O1         112.1970    93.6880    61.7590 o          1 BI6      -0.580100
     14 C7         111.5410    96.8770    60.6190 c2         1 BI6      -0.240200
     15 C8         111.3480    98.0910    61.1710 c2         1 BI6      -0.183200
     16 O2         109.1750    95.7310    58.5290 o          1 BI6      -0.587000
     17 C13        107.0590    97.2400    59.5290 c5         1 BI6       0.026700
     18 C14        107.1780    98.5990    58.7650 c          1 BI6       0.600100
     19 O3         108.0720    99.4310    58.8520 o          1 BI6      -0.587100
     20 N4         106.1100    98.7310    57.9040 ns         1 BI6      -0.500900
     21 C15        105.8930    99.8840    57.0360 c3         1 BI6       0.211300
     22 C17        105.3900   101.1110    57.8030 ca         1 BI6      -0.097800
     23 C18        105.8070   102.3960    57.3990 ca         1 BI6      -0.094750
     24 C26        114.7860    92.8960    58.6240 c2         1 BI6       0.423100
     25 C19        105.3610   103.5390    58.0840 ca         1 BI6      -0.112250
     26 C20        104.4910   103.4090    59.1790 ca         1 BI6      -0.105000
     27 C21        104.0670   102.1340    59.5880 ca         1 BI6      -0.112250
     28 C22        104.5130   100.9900    58.9030 ca         1 BI6      -0.094750
     29 C16        104.9620    99.5200    55.8820 ca         1 BI6      -0.097800
     30 C23        103.6340    99.1060    56.1260 ca         1 BI6      -0.094750
     31 C24        102.7850    98.7720    55.0560 ca         1 BI6      -0.112250
     32 C25        103.2550    98.8480    53.7350 ca         1 BI6      -0.105000
     33 C27        105.4240    99.5930    54.5520 ca         1 BI6      -0.094750
     34 C28        104.5740    99.2590    53.4830 ca         1 BI6      -0.112250
     35 C12        105.9860    97.3420    60.6520 c5         1 BI6      -0.081400
     36 C11        106.8190    97.8880    61.8280 c5         1 BI6      -0.095400
     37 H491       109.5180    99.2510    61.1970 hc         1 BI6       0.063700
     38 H492       110.4770    99.3560    62.6490 hc         1 BI6       0.063700
     39 H91C       109.8820    96.8320    63.0360 hc         1 BI6       0.052700
     40 H92C       108.8020    98.0960    63.4920 hc         1 BI6       0.052700
     41 H8         112.1690    98.8120    61.1330 ha         1 BI6       0.173000
     42 H10        107.8460    95.9940    62.2060 h1         1 BI6       0.048700
     43 H111       106.2890    97.8130    62.7850 hc         1 BI6       0.064700
     44 H112       107.0680    98.9460    61.6790 hc         1 BI6       0.064700
     45 H13        106.7810    96.4650    58.8020 h1         1 BI6       0.072700
     46 H5         110.2460    95.3810    61.5150 h1         1 BI6       0.092700
     47 H2         111.1370    94.4440    58.8840 hn         1 BI6       0.335500
     48 H7         112.5080    96.6740    60.1540 ha         1 BI6       0.182000
     49 H1         112.2520    92.7000    58.6230 h1         1 BI6       0.034700
     50 H21C       112.5750    90.3530    59.3970 hc         1 BI6       0.058700
     51 H22C       112.4370    90.8770    61.0720 hc         1 BI6       0.058700
     52 H31C       110.0680    91.6190    60.6590 hc         1 BI6       0.036033
     53 H32C       110.2210    91.1580    58.9470 hc         1 BI6       0.036033
     54 H33C       110.2870    89.9160    60.2140 hc         1 BI6       0.036033
     55 H261       115.8720    92.8920    58.6520 h4         1 BI6      -0.017700
     56 H262       114.3070    93.2320    57.7080 h4         1 BI6      -0.017700
     57 H121       105.1390    97.9880    60.3950 hc         1 BI6       0.057200
     58 H122       105.5740    96.3540    60.8900 hc         1 BI6       0.057200
     59 H4         105.4370    97.9760    57.8760 hn         1 BI6       0.320500
     60 H15        106.8700   100.1440    56.6060 h1         1 BI6       0.082700
     61 H18        106.4790   102.5100    56.5510 ha         1 BI6       0.115250
     62 H22        104.1700   100.0120    59.2320 ha         1 BI6       0.115250
     63 H19        105.6890   104.5260    57.7650 ha         1 BI6       0.112750
     64 H20        104.1460   104.2940    59.7090 ha         1 BI6       0.112500
     65 H21        103.3920   102.0320    60.4340 ha         1 BI6       0.112750
     66 H23        103.2560    99.0440    57.1440 ha         1 BI6       0.115250
     67 H27        106.4440    99.9100    54.3430 ha         1 BI6       0.115250
     68 H24        101.7640    98.4550    55.2530 ha         1 BI6       0.112750
     69 H25        102.5970    98.5900    52.9070 ha         1 BI6       0.112500
     70 H28        104.9390    99.3180    52.4600 ha         1 BI6       0.112750
@<TRIPOS>BOND
     1     1     2 1   
     2     1    15 1   
     3     1    37 1   
     4     1    38 1   
     5     2     3 1   
     6     2    39 1   
     7     2    40 1   
     8     3     4 1   
     9     3    36 1   
    10     3    42 1   
    11     4     5 1   
    12     4    17 1   
    13     5     6 1   
    14     5    16 2   
    15     6     7 1   
    16     6    14 1   
    17     6    46 1   
    18     7     8 1   
    19     7    47 1   
    20     8     9 1   
    21     8    13 2   
    22     9    10 1   
    23     9    12 1   
    24     9    49 1   
    25    10    11 1   
    26    10    50 1   
    27    10    51 1   
    28    11    52 1   
    29    11    53 1   
    30    11    54 1   
    31    12    24 2   
    32    14    15 2   
    33    14    48 1   
    34    15    41 1   
    35    17    18 1   
    36    17    35 1   
    37    17    45 1   
    38    18    19 2   
    39    18    20 1   
    40    20    21 1   
    41    20    59 1   
    42    21    22 1   
    43    21    29 1   
    44    21    60 1   
    45    22    23 ar  
    46    22    28 ar  
    47    23    25 ar  
    48    23    61 1   
    49    24    55 1   
    50    24    56 1   
    51    25    26 ar  
    52    25    63 1   
    53    26    27 ar  
    54    26    64 1   
    55    27    28 ar  
    56    27    65 1   
    57    28    62 1   
    58    29    30 ar  
    59    29    33 ar  
    60    30    31 ar  
    61    30    66 1   
    62    31    32 ar  
    63    31    68 1   
    64    32    34 ar  
    65    32    69 1   
    66    33    34 ar  
    67    33    67 1   
    68    34    70 1   
    69    35    36 1   
    70    35    57 1   
    71    35    58 1   
    72    36    43 1   
    73    36    44 1   
@<TRIPOS>SUBSTRUCTURE
     1 BI6         1 TEMP              0 ****  ****    0 ROOT
