@<TRIPOS>MOLECULE
BI7
   59    63     1     0     0
SMALL
bcc


@<TRIPOS>ATOM
      1 O13          0.9880     0.2240     2.2740 o          1 BI7      -0.569500
      2 C6           1.7770     0.9280     1.6960 c          1 BI7       0.723500
      3 N12          3.0390     0.5320     1.3120 n          1 BI7      -0.518400
      4 C19          3.5020    -0.8320     1.4350 c3         1 BI7       0.114000
      5 C21          3.1270    -1.6500     0.2010 c3         1 BI7      -0.128400
      6 C23          3.4710    -3.1030     0.4590 c3         1 BI7       0.130800
      7 N29          3.1580    -4.0450    -0.6710 n4         1 BI7      -0.605800
      8 C30          3.9470    -3.7010    -1.8860 c3         1 BI7       0.102100
      9 C31          3.5340    -5.4180    -0.2300 c3         1 BI7       0.102100
     10 C32          1.7050    -4.0260    -0.9950 c3         1 BI7       0.102100
     11 C2           1.5700     2.3520     1.2440 c5         1 BI7      -0.151700
     12 C1           0.6880     2.4590    -0.0350 c5         1 BI7       0.138200
     13 N3           1.6370     2.6260    -1.1270 n3         1 BI7      -0.684600
     14 C8           1.1090     3.4240    -2.2270 c5         1 BI7       0.142800
     15 C15          1.2860     4.9070    -1.8190 c5         1 BI7      -0.111400
     16 C14          2.2850     4.8770    -0.6460 c5         1 BI7      -0.105400
     17 C7           2.7440     3.4090    -0.5960 c5         1 BI7       0.159500
     18 C5           2.9550     2.8190     0.7870 c5         1 BI7      -0.142700
     19 C11          3.7700     1.5450     0.7320 c          1 BI7       0.728500
     20 O18          4.8760     1.4070     0.2730 o          1 BI7      -0.569500
     21 C4          -0.2120     1.2860    -0.2660 cc         1 BI7       0.350600
     22 C16         -1.5080     1.0900     0.2650 cc         1 BI7      -0.376600
     23 N9           0.1560     0.2790    -1.0050 nd         1 BI7      -0.364300
     24 O10         -0.8790    -0.6090    -0.9770 os         1 BI7      -0.137100
     25 C17         -1.8700    -0.1240    -0.2230 cd         1 BI7       0.395200
     26 C20         -3.0590    -0.9250    -0.1000 cd         1 BI7      -0.164600
     27 C22         -3.3470    -2.1160    -0.7090 cc         1 BI7      -0.098000
     28 C24         -4.6240    -2.6200    -0.3660 cc         1 BI7      -0.150000
     29 S1          -4.3570    -0.4040     0.9120 ss         1 BI7       0.018200
     30 C25         -5.2740    -1.7960     0.4980 cd         1 BI7       0.038300
     31 CL1         -6.8280    -2.0190     1.1590 cl         1 BI7      -0.018400
     32 H2           1.1380     2.9360     2.0550 hc         1 BI7       0.108700
     33 H191         4.5810    -0.8220     1.5820 h1         1 BI7       0.074200
     34 H192         3.0550    -1.2580     2.3330 h1         1 BI7       0.074200
     35 H211         2.0600    -1.5270     0.0080 hc         1 BI7       0.085200
     36 H212         3.6670    -1.2570    -0.6610 hc         1 BI7       0.085200
     37 H231         4.5360    -3.2190     0.6660 hx         1 BI7       0.091200
     38 H232         2.9220    -3.4750     1.3250 hx         1 BI7       0.091200
     39 H301         5.0030    -3.6770    -1.6320 hx         1 BI7       0.098033
     40 H302         3.7700    -4.4610    -2.6430 hx         1 BI7       0.098033
     41 H303         3.6360    -2.7350    -2.2730 hx         1 BI7       0.098033
     42 H311         2.9430    -5.6890     0.6400 hx         1 BI7       0.098033
     43 H312         3.3390    -6.1170    -1.0390 hx         1 BI7       0.098033
     44 H313         4.5900    -5.4340     0.0240 hx         1 BI7       0.098033
     45 H321         1.4280    -3.0620    -1.4090 hx         1 BI7       0.098033
     46 H322         1.5020    -4.8000    -1.7310 hx         1 BI7       0.098033
     47 H323         1.1360    -4.2220    -0.0900 hx         1 BI7       0.098033
     48 H1           0.0400     3.3360     0.1020 h1         1 BI7       0.066700
     49 H5           3.4360     3.5140     1.4780 hc         1 BI7       0.109700
     50 H81C         1.6860     3.2030    -3.1270 h1         1 BI7       0.067700
     51 H82C         0.0730     3.1560    -2.4390 h1         1 BI7       0.067700
     52 H7           3.6240     3.2800    -1.2310 h1         1 BI7       0.101700
     53 H151         1.6580     5.4950    -2.6580 hc         1 BI7       0.059200
     54 H152         0.3390     5.3530    -1.5160 hc         1 BI7       0.059200
     55 H141         3.1270     5.5540    -0.7890 hc         1 BI7       0.058200
     56 H142         1.8000     5.1690     0.2880 hc         1 BI7       0.058200
     57 H16         -2.0660     1.7570     0.9010 ha         1 BI7       0.183000
     58 H22         -2.6740    -2.6190    -1.3880 ha         1 BI7       0.156000
     59 H24         -5.0360    -3.5430    -0.7440 ha         1 BI7       0.173000
@<TRIPOS>BOND
     1     1     2 2   
     2     2     3 1   
     3     2    11 1   
     4     3     4 1   
     5     3    19 1   
     6     4     5 1   
     7     4    33 1   
     8     4    34 1   
     9     5     6 1   
    10     5    35 1   
    11     5    36 1   
    12     6     7 1   
    13     6    37 1   
    14     6    38 1   
    15     7     8 1   
    16     7     9 1   
    17     7    10 1   
    18     8    39 1   
    19     8    40 1   
    20     8    41 1   
    21     9    42 1   
    22     9    43 1   
    23     9    44 1   
    24    10    45 1   
    25    10    46 1   
    26    10    47 1   
    27    11    12 1   
    28    11    18 1   
    29    11    32 1   
    30    12    13 1   
    31    12    21 1   
    32    12    48 1   
    33    13    14 1   
    34    13    17 1   
    35    14    15 1   
    36    14    50 1   
    37    14    51 1   
    38    15    16 1   
    39    15    53 1   
    40    15    54 1   
    41    16    17 1   
    42    16    55 1   
    43    16    56 1   
    44    17    18 1   
    45    17    52 1   
    46    18    19 1   
    47    18    49 1   
    48    19    20 2   
    49    21    22 1   
    50    21    23 2   
    51    22    25 2   
    52    22    57 1   
    53    23    24 1   
    54    24    25 1   
    55    25    26 1   
    56    26    27 2   
    57    26    29 1   
    58    27    28 1   
    59    27    58 1   
    60    28    30 2   
    61    28    59 1   
    62    29    30 1   
    63    30    31 1   
@<TRIPOS>SUBSTRUCTURE
     1 BI7         1 TEMP              0 ****  ****    0 ROOT
