@<TRIPOS>MOLECULE
BI7
   59    63     1     0     0
SMALL
No Charge or Current Charge


@<TRIPOS>ATOM
      1 O13          0.7590    -0.1490     2.1500 o          1 BI7      -0.494000
      2 C6           1.5110     0.6350     1.5880 c          1 BI7       0.581000
      3 N12          2.8480     0.3930     1.3050 n          1 BI7      -0.384400
      4 C19          3.4280    -0.9530     1.4960 c3         1 BI7       0.114000
      5 C21          3.3600    -1.7870     0.2050 c3         1 BI7      -0.128400
      6 C23          3.9320    -3.2080     0.3880 c3         1 BI7       0.102600
      7 N29          3.9010    -4.1430    -0.8310 n4         1 BI7      -0.493000
      8 C30          4.7220    -3.5510    -1.9870 c3         1 BI7       0.073900
      9 C31          4.5130    -5.4930    -0.4310 c3         1 BI7       0.073900
     10 C32          2.4540    -4.3750    -1.2960 c3         1 BI7       0.073900
     11 C2           1.2800     2.1200     1.2660 c5         1 BI7      -0.151700
     12 C1           0.4760     2.2830    -0.0710 c5         1 BI7       0.138200
     13 N3           1.5710     2.2900    -1.0950 n3         1 BI7      -0.684600
     14 C8           1.1420     3.0030    -2.3280 c5         1 BI7       0.142800
     15 C15          1.2220     4.5230    -1.9600 c5         1 BI7      -0.111400
     16 C14          2.0860     4.5830    -0.6580 c5         1 BI7      -0.105400
     17 C7           2.6460     3.1310    -0.5580 c5         1 BI7       0.159500
     18 C5           2.7140     2.6920     0.9330 c5         1 BI7      -0.142700
     19 C11          3.6550     1.4820     0.9960 c          1 BI7       0.586000
     20 O18          4.8760     1.4620     0.9380 o          1 BI7      -0.494000
     21 C4          -0.4840     1.1250    -0.3840 cc         1 BI7       0.285300
     22 C16         -1.7700     1.2370     0.1710 cc         1 BI7      -0.228000
     23 N9          -0.2810     0.0150    -1.0880 nd         1 BI7      -0.364300
     24 O10         -1.5490    -0.6710    -0.9940 os         1 BI7      -0.092700
     25 C17         -2.3860     0.1040    -0.2330 cd         1 BI7       0.285500
     26 C20         -3.7380    -0.2490     0.0900 cd         1 BI7      -0.309500
     27 C22         -4.3100    -1.4170    -0.3490 cc         1 BI7      -0.080000
     28 C24         -5.6510    -1.5630     0.0890 cc         1 BI7      -0.132000
     29 S1          -4.8450     0.7280     1.0730 ss         1 BI7       0.308000
     30 C25         -6.0960    -0.5150     0.8550 cd         1 BI7      -0.015000
     31 Cl1         -7.6810    -0.3800     1.5460 cl         1 BI7      -0.110000
     32 H2           0.7580     2.5940     2.1030 hc         1 BI7       0.108700
     33 H191         4.4740    -0.8650     1.8190 h1         1 BI7       0.074200
     34 H192         2.8910    -1.4770     2.2980 h1         1 BI7       0.074200
     35 H211         2.3150    -1.8500    -0.1190 hc         1 BI7       0.085200
     36 H212         3.9130    -1.2650    -0.5840 hc         1 BI7       0.085200
     37 H231         4.9740    -3.1240     0.7060 hx         1 BI7       0.091200
     38 H232         3.3790    -3.7030     1.1890 hx         1 BI7       0.091200
     39 H301         5.7470    -3.3780    -1.6500 hx         1 BI7       0.098033
     40 H302         4.7240    -4.2520    -2.8240 hx         1 BI7       0.098033
     41 H303         4.2750    -2.6070    -2.3030 hx         1 BI7       0.098033
     42 H311         3.9310    -5.9260     0.3850 hx         1 BI7       0.098033
     43 H312         4.4950    -6.1660    -1.2900 hx         1 BI7       0.098033
     44 H313         5.5440    -5.3400    -0.1060 hx         1 BI7       0.098033
     45 H321         2.0200    -3.4260    -1.6170 hx         1 BI7       0.098033
     46 H322         2.4520    -5.0770    -2.1320 hx         1 BI7       0.098033
     47 H323         1.8700    -4.7860    -0.4700 hx         1 BI7       0.098033
     48 H1          -0.0940     3.2220    -0.0530 h1         1 BI7       0.066700
     49 H5           3.0920     3.4830     1.5890 hc         1 BI7       0.109700
     50 H81C         1.8370     2.7820    -3.1510 h1         1 BI7       0.067700
     51 H82C         0.1390     2.7070    -2.6690 h1         1 BI7       0.067700
     52 H7           3.5960     3.0210    -1.1040 h1         1 BI7       0.101700
     53 H151         1.6720     5.0990    -2.7770 hc         1 BI7       0.059200
     54 H152         0.2240     4.9440    -1.7900 hc         1 BI7       0.059200
     55 H141         2.8920     5.3210    -0.7310 hc         1 BI7       0.058200
     56 H142         1.4780     4.8710     0.2070 hc         1 BI7       0.058200
     57 H16         -2.1550     2.0450     0.7820 ha         1 BI7       0.165000
     58 H22         -3.8130    -2.1630    -0.9640 ha         1 BI7       0.138000
     59 H24         -6.2560    -2.4280    -0.1660 ha         1 BI7       0.155000
@<TRIPOS>BOND
     1     1     2 2   
     2     2     3 1   
     3     2    11 1   
     4     3     4 1   
     5     3    19 1   
     6     4     5 1   
     7     4    33 1   
     8     4    34 1   
     9     5     6 1   
    10     5    35 1   
    11     5    36 1   
    12     6     7 1   
    13     6    37 1   
    14     6    38 1   
    15     7     8 1   
    16     7     9 1   
    17     7    10 1   
    18     8    39 1   
    19     8    40 1   
    20     8    41 1   
    21     9    42 1   
    22     9    43 1   
    23     9    44 1   
    24    10    45 1   
    25    10    46 1   
    26    10    47 1   
    27    11    12 1   
    28    11    18 1   
    29    11    32 1   
    30    12    13 1   
    31    12    21 1   
    32    12    48 1   
    33    13    14 1   
    34    13    17 1   
    35    14    15 1   
    36    14    50 1   
    37    14    51 1   
    38    15    16 1   
    39    15    53 1   
    40    15    54 1   
    41    16    17 1   
    42    16    55 1   
    43    16    56 1   
    44    17    18 1   
    45    17    52 1   
    46    18    19 1   
    47    18    49 1   
    48    19    20 2   
    49    21    22 1   
    50    21    23 2   
    51    22    25 2   
    52    22    57 1   
    53    23    24 1   
    54    24    25 1   
    55    25    26 1   
    56    26    27 2   
    57    26    29 1   
    58    27    28 1   
    59    27    58 1   
    60    28    30 2   
    61    28    59 1   
    62    29    30 1   
    63    30    31 1   
@<TRIPOS>SUBSTRUCTURE
     1 BI7         1 TEMP              0 ****  ****    0 ROOT
