@<TRIPOS>MOLECULE
BI8
   52    56     1     0     0
SMALL
No Charge or Current Charge


@<TRIPOS>ATOM
      1 CB0         -0.0420    -2.7900     4.9790 c3         1 BI8       0.061900
      2 NBC         -0.8310     1.2900    -7.4650 n8         1 BI8      -0.995200
      3 CBB         -1.5270     1.6270    -6.2110 c3         1 BI8       0.154800
      4 CBA         -0.7690     1.0840    -4.9860 c3         1 BI8      -0.104400
      5 NAH         -0.7600     0.9050    -2.4780 na         1 BI8      -0.079700
      6 CAW          0.1620     1.6080    -1.6830 cc         1 BI8      -0.108100
      7 CAE         -0.9090    -0.3990    -2.0200 ca         1 BI8      -0.055200
      8 CAF         -1.6630    -1.4540    -2.5630 ca         1 BI8      -0.122000
      9 CAA         -1.5730    -2.7200    -1.9480 ca         1 BI8      -0.096000
     10 CAB         -0.7170    -2.9160    -0.8400 ca         1 BI8      -0.134000
     11 CAC          0.0380    -1.8430    -0.3230 ca         1 BI8      -0.054000
     12 CAD         -0.1180    -0.5770    -0.9130 ca         1 BI8      -0.065800
     13 CAG          0.5160     0.7140    -0.6780 cd         1 BI8      -0.116200
     14 CAI          1.4220     1.1760     0.3590 cd         1 BI8      -0.064200
     15 CAT          2.4540     2.2380     0.2200 c          1 BI8       0.567200
     16 OAZ          2.6700     3.0160    -0.6960 o          1 BI8      -0.499000
     17 NAU          3.2010     2.1090     1.3380 ns         1 BI8      -0.490500
     18 CAV          2.8130     1.1650     2.2240 c          1 BI8       0.567200
     19 OAX          3.3540     0.9360     3.2940 o          1 BI8      -0.499000
     20 CAJ          1.5830     0.5970     1.6200 cc         1 BI8      -0.058200
     21 CAK          0.6640    -0.2630     2.3460 cc         1 BI8      -0.119200
     22 CAM         -0.7710    -0.4400     2.2510 ca         1 BI8      -0.062800
     23 CAP         -1.7520     0.2490     1.5140 ca         1 BI8      -0.054000
     24 CAQ         -3.1000    -0.1320     1.6700 ca         1 BI8      -0.134000
     25 CAR         -3.4530    -1.1530     2.5800 ca         1 BI8      -0.095000
     26 CAS         -2.4610    -1.7810     3.3580 ca         1 BI8      -0.123000
     27 CAN         -1.1240    -1.3900     3.1760 ca         1 BI8      -0.060200
     28 NAO         -0.0110    -1.8040     3.8890 na         1 BI8      -0.079700
     29 CAL          1.0830    -1.0480     3.4190 cd         1 BI8      -0.104100
     30 HB01        -0.6790    -2.4210     5.7910 h1         1 BI8       0.052033
     31 HB02        -0.4420    -3.7400     4.6030 h1         1 BI8       0.052033
     32 HB03         0.9730    -2.9530     5.3610 h1         1 BI8       0.052033
     33 HBC1        -1.3370     1.7140    -8.2530 hn         1 BI8       0.396000
     34 HBC2         0.0790     1.7670    -7.4820 hn         1 BI8       0.396000
     35 HBB1        -2.5370     1.1960    -6.2430 h1         1 BI8       0.025200
     36 HBB2        -1.6160     2.7200    -6.1400 h1         1 BI8       0.025200
     37 HBA1         0.2440     1.5040    -4.9660 hc         1 BI8       0.065200
     38 HBA2        -0.6660    -0.0040    -5.0770 hc         1 BI8       0.065200
     39 HAY1        -2.4950     1.0040    -3.6650 h1         1 BI8       0.056700
     40 HAY2        -1.5670     2.5070    -3.5600 h1         1 BI8       0.056700
     41 HAW          0.4280     2.6430    -1.8650 h4         1 BI8       0.224000
     42 HAF         -2.2900    -1.3130    -3.4390 ha         1 BI8       0.114000
     43 HAA         -2.1440    -3.5560    -2.3460 ha         1 BI8       0.109000
     44 HAB         -0.6280    -3.9030    -0.3930 ha         1 BI8       0.109000
     45 HAC          0.7310    -2.0100     0.4950 ha         1 BI8       0.122000
     46 HAU          4.0090     2.6900     1.5050 hn         1 BI8       0.347500
     47 HAP         -1.4940     1.0670     0.8510 ha         1 BI8       0.123000
     48 HAQ         -3.8740     0.3740     1.0970 ha         1 BI8       0.109000
     49 HAR         -4.4970    -1.4350     2.7010 ha         1 BI8       0.109000
     50 HAS         -2.7320    -2.5370     4.0910 ha         1 BI8       0.113000
     51 HAL          2.0740    -1.1750     3.8420 h4         1 BI8       0.226000
     52 CAY         -1.4780     1.4180    -3.6580 c3         1 BI8       0.074600
@<TRIPOS>BOND
     1     1    28 1   
     2     1    30 1   
     3     1    31 1   
     4     1    32 1   
     5     2     3 1   
     6     2    33 1   
     7     2    34 1   
     8     3     4 1   
     9     3    35 1   
    10     3    36 1   
    11     4    37 1   
    12     4    38 1   
    13     4    52 1   
    14     5     6 1   
    15     5     7 1   
    16     5    52 1   
    17     6    13 2   
    18     6    41 1   
    19     7     8 ar  
    20     7    12 ar  
    21     8     9 ar  
    22     8    42 1   
    23     9    10 ar  
    24     9    43 1   
    25    10    11 ar  
    26    10    44 1   
    27    11    12 ar  
    28    11    45 1   
    29    12    13 1   
    30    13    14 1   
    31    14    15 1   
    32    14    20 2   
    33    15    16 2   
    34    15    17 1   
    35    17    18 1   
    36    17    46 1   
    37    18    19 2   
    38    18    20 1   
    39    20    21 1   
    40    21    22 1   
    41    21    29 2   
    42    22    23 ar  
    43    22    27 ar  
    44    23    24 ar  
    45    23    47 1   
    46    24    25 ar  
    47    24    48 1   
    48    25    26 ar  
    49    25    49 1   
    50    26    27 ar  
    51    26    50 1   
    52    27    28 1   
    53    28    29 1   
    54    29    51 1   
    55    39    52 1   
    56    40    52 1   
@<TRIPOS>SUBSTRUCTURE
     1 BI8         1 TEMP              0 ****  ****    0 ROOT
