@<TRIPOS>MOLECULE
BI8
   52    56     1     0     0
SMALL
abcg2


@<TRIPOS>ATOM
      1 CB0          0.0380    -2.6840     5.0170 c3         1 BI8       0.061900
      2 NBC         -0.5600     1.6440    -7.3690 n8         1 BI8      -0.995200
      3 CBB         -1.3780     1.8020    -6.1760 c3         1 BI8       0.154800
      4 CBA         -0.7240     1.1270    -4.9790 c3         1 BI8      -0.104400
      5 NAH         -0.9060     0.7690    -2.5360 na         1 BI8      -0.079700
      6 CAW         -0.0620     1.4520    -1.7250 cc         1 BI8      -0.108100
      7 CAE         -0.9390    -0.5450    -2.1390 ca         1 BI8      -0.055200
      8 CAF         -1.6270    -1.6250    -2.6880 ca         1 BI8      -0.122000
      9 CAA         -1.4620    -2.8570    -2.0830 ca         1 BI8      -0.096000
     10 CAB         -0.6250    -3.0130    -0.9690 ca         1 BI8      -0.134000
     11 CAC          0.0540    -1.9390    -0.4290 ca         1 BI8      -0.054000
     12 CAD         -0.1060    -0.6780    -1.0100 ca         1 BI8      -0.065800
     13 CAG          0.4460     0.6230    -0.7500 cd         1 BI8      -0.116200
     14 CAI          1.3530     1.0140     0.2980 cd         1 BI8      -0.064200
     15 CAT          2.4740     1.9630     0.0210 c          1 BI8       0.567200
     16 OAZ          2.7100     2.5470    -1.0080 o          1 BI8      -0.499000
     17 NAU          3.2200     2.0390     1.1730 ns         1 BI8      -0.490500
     18 CAV          2.6870     1.2480     2.1630 c          1 BI8       0.567200
     19 OAX          3.1270     1.1320     3.2800 o          1 BI8      -0.499000
     20 CAJ          1.4680     0.5990     1.5830 cc         1 BI8      -0.058200
     21 CAK          0.6120    -0.2210     2.3970 cc         1 BI8      -0.119200
     22 CAM         -0.8210    -0.3410     2.3560 ca         1 BI8      -0.062800
     23 CAP         -1.8380     0.2770     1.6230 ca         1 BI8      -0.054000
     24 CAQ         -3.1500    -0.0750     1.8740 ca         1 BI8      -0.134000
     25 CAR         -3.4760    -1.0290     2.8490 ca         1 BI8      -0.095000
     26 CAS         -2.4930    -1.6410     3.6030 ca         1 BI8      -0.123000
     27 CAN         -1.1740    -1.2800     3.3450 ca         1 BI8      -0.060200
     28 NAO         -0.0220    -1.7050     3.9580 na         1 BI8      -0.079700
     29 CAL          1.0340    -1.0680     3.4010 cd         1 BI8      -0.104100
     30 HB01        -0.6020    -2.3900     5.8470 h1         1 BI8       0.052033
     31 HB02        -0.2770    -3.6640     4.6600 h1         1 BI8       0.052033
     32 HB03         1.0600    -2.7560     5.3790 h1         1 BI8       0.052033
     33 HBC1        -1.0850     1.9480    -8.1790 hn         1 BI8       0.396000
     34 HBC2         0.2400     2.2620    -7.3140 hn         1 BI8       0.396000
     35 HBB1        -2.3490     1.3360    -6.3660 h1         1 BI8       0.025200
     36 HBB2        -1.5860     2.8520    -5.9230 h1         1 BI8       0.025200
     37 HBA1         0.2760     1.5420    -4.8210 hc         1 BI8       0.065200
     38 HBA2        -0.5980     0.0610    -5.1880 hc         1 BI8       0.065200
     39 HAY1        -2.5290     0.8490    -3.8200 h1         1 BI8       0.056700
     40 HAY2        -1.7290     2.3760    -3.5270 h1         1 BI8       0.056700
     41 HAW          0.1010     2.5070    -1.8780 h4         1 BI8       0.224000
     42 HAF         -2.2650    -1.5150    -3.5550 ha         1 BI8       0.114000
     43 HAA         -1.9840    -3.7170    -2.4830 ha         1 BI8       0.109000
     44 HAB         -0.5110    -3.9950    -0.5270 ha         1 BI8       0.109000
     45 HAC          0.6980    -2.0740     0.4300 ha         1 BI8       0.122000
     46 HAU          4.0500     2.6040     1.2800 hn         1 BI8       0.347500
     47 HAP         -1.6120     1.0190     0.8690 ha         1 BI8       0.123000
     48 HAQ         -3.9440     0.3930     1.3060 ha         1 BI8       0.109000
     49 HAR         -4.5140    -1.2840     3.0200 ha         1 BI8       0.109000
     50 HAS         -2.7440    -2.3660     4.3680 ha         1 BI8       0.113000
     51 HAL          2.0350    -1.2780     3.7410 h4         1 BI8       0.226000
     52 CAY         -1.5480     1.3160    -3.7130 c3         1 BI8       0.074600
@<TRIPOS>BOND
     1     1    28 1   
     2     1    30 1   
     3     1    31 1   
     4     1    32 1   
     5     2     3 1   
     6     2    33 1   
     7     2    34 1   
     8     3     4 1   
     9     3    35 1   
    10     3    36 1   
    11     4    37 1   
    12     4    38 1   
    13     4    52 1   
    14     5     6 1   
    15     5     7 1   
    16     5    52 1   
    17     6    13 2   
    18     6    41 1   
    19     7     8 ar  
    20     7    12 ar  
    21     8     9 ar  
    22     8    42 1   
    23     9    10 ar  
    24     9    43 1   
    25    10    11 ar  
    26    10    44 1   
    27    11    12 ar  
    28    11    45 1   
    29    12    13 1   
    30    13    14 1   
    31    14    15 1   
    32    14    20 2   
    33    15    16 2   
    34    15    17 1   
    35    17    18 1   
    36    17    46 1   
    37    18    19 2   
    38    18    20 1   
    39    20    21 1   
    40    21    22 1   
    41    21    29 2   
    42    22    23 ar  
    43    22    27 ar  
    44    23    24 ar  
    45    23    47 1   
    46    24    25 ar  
    47    24    48 1   
    48    25    26 ar  
    49    25    49 1   
    50    26    27 ar  
    51    26    50 1   
    52    27    28 1   
    53    28    29 1   
    54    29    51 1   
    55    39    52 1   
    56    40    52 1   
@<TRIPOS>SUBSTRUCTURE
     1 BI8         1 TEMP              0 ****  ****    0 ROOT
