@<TRIPOS>MOLECULE
BI9
   58    61     1     0     0
SMALL
abcg2


@<TRIPOS>ATOM
      1 CBC          9.5530    -1.8460    32.0160 c6         1 BI9       0.163300
      2 CBE         10.9270    -1.9270    32.6490 c6         1 BI9       0.146100
      3 OBG         11.6990    -2.9670    32.0960 os         1 BI9      -0.442000
      4 CBF         11.8500    -2.7740    30.7090 c6         1 BI9       0.146100
      5 CBD         10.5150    -2.7300    29.9880 c6         1 BI9       0.163300
      6 NBB          9.6610    -1.7130    30.5700 nh         1 BI9      -0.795400
      7 CBA          8.5450    -1.3020    29.8510 ca         1 BI9       0.342000
      8 CAY          7.7190    -0.2850    30.3600 ca         1 BI9      -0.254000
      9 CAS          6.6610     0.2180    29.6190 ca         1 BI9       0.171100
     10 OAT          5.8650     1.2190    30.0300 os         1 BI9      -0.335100
     11 CAU          6.1140     1.8200    31.2840 c3         1 BI9       0.147900
     12 CAX          8.2360    -1.8340    28.5950 ca         1 BI9      -0.213000
     13 CAR          7.1800    -1.3130    27.8600 ca         1 BI9      -0.020000
     14 CAL          6.3870    -0.2920    28.3400 ca         1 BI9       0.204000
     15 NAH          5.4050     0.3150    27.5260 nu         1 BI9      -0.924900
     16 C2           5.6940     1.4530    26.8490 ca         1 BI9       0.424900
     17 N3           6.9730     1.8130    26.8190 nb         1 BI9      -0.313000
     18 N1           4.6860     2.1000    26.2620 nb         1 BI9      -0.265000
     19 C6           5.0290     3.2010    25.6030 ca         1 BI9       0.180900
     20 C5           6.3210     3.6660    25.5220 ca         1 BI9      -0.120000
     21 CL5          6.6920     5.1110    24.6500 cl         1 BI9      -0.175000
     22 C4           7.3200     2.9090    26.1750 ca         1 BI9       0.442900
     23 NAE          8.6160     3.2990    26.1380 nu         1 BI9      -0.942900
     24 CAJ          9.7420     2.7130    26.7110 ca         1 BI9       0.369000
     25 CAQ          9.6820     1.7410    27.7170 ca         1 BI9      -0.143000
     26 CAW         10.8410     1.2360    28.2830 ca         1 BI9      -0.066000
     27 CAZ         12.0890     1.6780    27.8710 ca         1 BI9      -0.155000
     28 CAV         12.1590     2.6230    26.8630 ca         1 BI9      -0.067000
     29 CAP         11.0130     3.1400    26.2610 ca         1 BI9      -0.215600
     30 CAO         11.1460     4.1630    25.1810 c          1 BI9       0.618700
     31 OAI         10.2930     5.0370    25.0050 o          1 BI9      -0.633100
     32 NAN         12.2300     4.0870    24.4060 ns         1 BI9      -0.491900
     33 CAM         12.4830     5.0370    23.3490 c3         1 BI9       0.092300
     34 HBC1         8.9680    -2.7380    32.2810 h1         1 BI9       0.049700
     35 HBC2         9.0450    -0.9860    32.4470 h1         1 BI9       0.049700
     36 HBE1        11.4410    -0.9620    32.5350 h1         1 BI9       0.053450
     37 HBE2        10.8220    -2.1260    33.7160 h1         1 BI9       0.053450
     38 HBF1        12.3990    -1.8430    30.5090 h1         1 BI9       0.053450
     39 HBF2        12.4440    -3.6030    30.3220 h1         1 BI9       0.053450
     40 HBD1        10.7200    -2.4870    28.9450 h1         1 BI9       0.049700
     41 HBD2        10.0410    -3.7220    30.0090 h1         1 BI9       0.049700
     42 HAY          7.9450     0.1490    31.3230 ha         1 BI9       0.119000
     43 HAX          8.8100    -2.6420    28.1670 ha         1 BI9       0.119000
     44 HAU1         6.0190     1.1070    32.1070 h1         1 BI9       0.043033
     45 HAU2         7.1060     2.2790    31.3280 h1         1 BI9       0.043033
     46 HAU3         5.3640     2.5970    31.4080 h1         1 BI9       0.043033
     47 HAR          6.9740    -1.7090    26.8730 ha         1 BI9       0.125000
     48 HAH          4.4280     0.1180    27.6800 hn         1 BI9       0.516000
     49 H6           4.2300     3.7490    25.1150 h4         1 BI9       0.030100
     50 HAE          8.8350     4.1400    25.6080 hn         1 BI9       0.554000
     51 HAQ          8.7280     1.3730    28.0540 ha         1 BI9       0.162000
     52 HAW         10.7540     0.4960    29.0700 ha         1 BI9       0.124000
     53 HAZ         12.9930     1.3020    28.3290 ha         1 BI9       0.115000
     54 HAV         13.1340     2.9820    26.5570 ha         1 BI9       0.106000
     55 HAN         12.8790     3.3270    24.5110 hn         1 BI9       0.321500
     56 HAM1        12.6560     6.0400    23.7410 h1         1 BI9       0.042700
     57 HAM2        13.3730     4.7200    22.8140 h1         1 BI9       0.042700
     58 HAM3        11.6530     5.0820    22.6450 h1         1 BI9       0.042700
@<TRIPOS>BOND
     1     1     2 1   
     2     1     6 1   
     3     1    34 1   
     4     1    35 1   
     5     2     3 1   
     6     2    36 1   
     7     2    37 1   
     8     3     4 1   
     9     4     5 1   
    10     4    38 1   
    11     4    39 1   
    12     5     6 1   
    13     5    40 1   
    14     5    41 1   
    15     6     7 1   
    16     7     8 ar  
    17     7    12 ar  
    18     8     9 ar  
    19     8    42 1   
    20     9    10 1   
    21     9    14 ar  
    22    10    11 1   
    23    11    44 1   
    24    11    45 1   
    25    11    46 1   
    26    12    13 ar  
    27    12    43 1   
    28    13    14 ar  
    29    13    47 1   
    30    14    15 1   
    31    15    16 1   
    32    15    48 1   
    33    16    17 ar  
    34    16    18 ar  
    35    17    22 ar  
    36    18    19 ar  
    37    19    20 ar  
    38    19    49 1   
    39    20    21 1   
    40    20    22 ar  
    41    22    23 1   
    42    23    24 1   
    43    23    50 1   
    44    24    25 ar  
    45    24    29 ar  
    46    25    26 ar  
    47    25    51 1   
    48    26    27 ar  
    49    26    52 1   
    50    27    28 ar  
    51    27    53 1   
    52    28    29 ar  
    53    28    54 1   
    54    29    30 1   
    55    30    31 2   
    56    30    32 1   
    57    32    33 1   
    58    32    55 1   
    59    33    56 1   
    60    33    57 1   
    61    33    58 1   
@<TRIPOS>SUBSTRUCTURE
     1 BI9         1 TEMP              0 ****  ****    0 ROOT
