@<TRIPOS>MOLECULE
BI9
   58    61     1     0     0
SMALL
No Charge or Current Charge


@<TRIPOS>ATOM
      1 CBC          8.9220    -3.4680    31.7510 c6         1 BI9       0.163300
      2 CBE          9.7060    -4.0390    32.9700 c6         1 BI9       0.146100
      3 OBG         11.1310    -4.0240    32.7190 os         1 BI9      -0.442000
      4 CBF         11.6340    -2.6900    32.4680 c6         1 BI9       0.146100
      5 CBD         10.9360    -2.0600    31.2260 c6         1 BI9       0.163300
      6 NBB          9.4400    -2.1260    31.3210 nh         1 BI9      -0.795400
      7 CBA          8.6230    -1.2560    30.5670 ca         1 BI9       0.342000
      8 CAY          7.3610    -0.8920    31.0570 ca         1 BI9      -0.254000
      9 CAS          6.5270    -0.0210    30.3220 ca         1 BI9       0.171100
     10 OAT          5.2720     0.3470    30.7880 os         1 BI9      -0.335100
     11 CAU          4.7390    -0.1320    32.0360 c3         1 BI9       0.147900
     12 CAX          9.0490    -0.7490    29.3280 ca         1 BI9      -0.213000
     13 CAR          8.2280     0.1170    28.5870 ca         1 BI9      -0.020000
     14 CAL          6.9630     0.5090    29.0770 ca         1 BI9       0.204000
     15 NAH          6.1090     1.3810    28.3610 nu         1 BI9      -0.924900
     16 C2           6.2880     2.3670    27.4020 ca         1 BI9       0.424900
     17 N3           7.5380     2.6790    27.0320 nb         1 BI9      -0.313000
     18 N1           5.1540     2.9280    26.9530 nb         1 BI9      -0.265000
     19 C6           5.2910     3.8990    26.0290 ca         1 BI9       0.180900
     20 C5           6.5560     4.3010    25.5690 ca         1 BI9      -0.120000
     21 Cl5          6.7070     5.5690    24.3480 cl         1 BI9      -0.175000
     22 C4           7.6760     3.6530    26.1220 ca         1 BI9       0.442900
     23 NAE          8.9620     3.9700    25.6960 nu         1 BI9      -0.942900
     24 CAJ         10.2530     3.5520    26.0270 ca         1 BI9       0.369000
     25 CAQ         10.5470     3.1170    27.3350 ca         1 BI9      -0.143000
     26 CAW         11.8310     2.6770    27.6820 ca         1 BI9      -0.066000
     27 CAZ         12.8460     2.6820    26.7190 ca         1 BI9      -0.155000
     28 CAV         12.5810     3.1360    25.4190 ca         1 BI9      -0.067000
     29 CAP         11.2850     3.5850    25.0510 ca         1 BI9      -0.215600
     30 CAO         11.0260     4.0910    23.6440 c          1 BI9       0.618700
     31 OAI         10.0330     4.7410    23.3380 o          1 BI9      -0.633100
     32 NAN         11.9920     3.8140    22.7040 ns         1 BI9      -0.491900
     33 CAM         11.9290     4.2370    21.3030 c3         1 BI9       0.092300
     34 HBC1         9.0010    -4.1800    30.9160 h1         1 BI9       0.049700
     35 HBC2         7.8580    -3.4100    32.0230 h1         1 BI9       0.049700
     36 HBE1         9.4900    -3.4390    33.8660 h1         1 BI9       0.053450
     37 HBE2         9.3860    -5.0720    33.1680 h1         1 BI9       0.053450
     38 HBF1        11.4550    -2.0640    33.3540 h1         1 BI9       0.053450
     39 HBF2        12.7190    -2.7400    32.3010 h1         1 BI9       0.053450
     40 HBD1        11.2650    -1.0140    31.1380 h1         1 BI9       0.049700
     41 HBD2        11.2780    -2.5890    30.3240 h1         1 BI9       0.049700
     42 HAY          7.0480    -1.2840    32.0170 ha         1 BI9       0.119000
     43 HAX         10.0130    -1.0370    28.9200 ha         1 BI9       0.119000
     44 HAU1         4.6590    -1.2260    32.0320 h1         1 BI9       0.043033
     45 HAU2         5.3770     0.1730    32.8760 h1         1 BI9       0.043033
     46 HAU3         3.7370     0.2810    32.2050 h1         1 BI9       0.043033
     47 HAR          8.5810     0.4620    27.6210 ha         1 BI9       0.125000
     48 HAH          5.1560     1.3810    28.7290 hn         1 BI9       0.516000
     49 H6           4.3760     4.3560    25.6540 h4         1 BI9       0.030100
     50 HAE          8.9570     4.4880    24.8080 hn         1 BI9       0.554000
     51 HAQ          9.7820     3.1320    28.1030 ha         1 BI9       0.162000
     52 HAW         12.0400     2.3400    28.6950 ha         1 BI9       0.124000
     53 HAZ         13.8460     2.3460    26.9840 ha         1 BI9       0.115000
     54 HAV         13.4070     3.1490    24.7120 ha         1 BI9       0.106000
     55 HAN         12.7830     3.2600    23.0080 hn         1 BI9       0.321500
     56 HAM1        11.8870     5.3320    21.2490 h1         1 BI9       0.042700
     57 HAM2        12.8220     3.8820    20.7720 h1         1 BI9       0.042700
     58 HAM3        11.0340     3.8130    20.8290 h1         1 BI9       0.042700
@<TRIPOS>BOND
     1     1     2 1   
     2     1     6 1   
     3     1    34 1   
     4     1    35 1   
     5     2     3 1   
     6     2    36 1   
     7     2    37 1   
     8     3     4 1   
     9     4     5 1   
    10     4    38 1   
    11     4    39 1   
    12     5     6 1   
    13     5    40 1   
    14     5    41 1   
    15     6     7 1   
    16     7     8 ar  
    17     7    12 ar  
    18     8     9 ar  
    19     8    42 1   
    20     9    10 1   
    21     9    14 ar  
    22    10    11 1   
    23    11    44 1   
    24    11    45 1   
    25    11    46 1   
    26    12    13 ar  
    27    12    43 1   
    28    13    14 ar  
    29    13    47 1   
    30    14    15 1   
    31    15    16 1   
    32    15    48 1   
    33    16    17 ar  
    34    16    18 ar  
    35    17    22 ar  
    36    18    19 ar  
    37    19    20 ar  
    38    19    49 1   
    39    20    21 1   
    40    20    22 ar  
    41    22    23 1   
    42    23    24 1   
    43    23    50 1   
    44    24    25 ar  
    45    24    29 ar  
    46    25    26 ar  
    47    25    51 1   
    48    26    27 ar  
    49    26    52 1   
    50    27    28 ar  
    51    27    53 1   
    52    28    29 ar  
    53    28    54 1   
    54    29    30 1   
    55    30    31 2   
    56    30    32 1   
    57    32    33 1   
    58    32    55 1   
    59    33    56 1   
    60    33    57 1   
    61    33    58 1   
@<TRIPOS>SUBSTRUCTURE
     1 BI9         1 TEMP              0 ****  ****    0 ROOT
