@<TRIPOS>MOLECULE
BIA
   51    53     1     0     0
SMALL
abcg2


@<TRIPOS>ATOM
      1 N2           3.3550    -1.2110    -0.1560 nh         1 BIA      -0.789400
      2 C3          -4.1200     0.8630    -0.6690 ca         1 BIA      -0.050000
      3 C4           5.4370    -1.7540    -1.3200 ca         1 BIA      -0.148000
      4 C6          -3.2310    -1.2360     0.4340 c          1 BIA       0.588700
      5 C7          -5.1550     1.7090    -0.9920 ca         1 BIA       0.089100
      6 O8          -3.4630    -2.2450     1.0660 o          1 BIA      -0.515100
      7 O9          -4.9010     2.8190    -1.7010 oh         1 BIA      -0.526100
      8 C10          6.7820    -1.5080    -1.5400 ca         1 BIA      -0.085000
      9 C11         -4.3400    -0.3070     0.0700 ca         1 BIA      -0.189600
     10 C12          1.1350    -0.4400     0.5430 c6         1 BIA       0.158300
     11 C16          1.4200    -2.6960    -0.0870 c6         1 BIA       0.158300
     12 O17         -8.9200     0.6270     0.3140 o          1 BIA      -0.402000
     13 O18         -8.1500    -1.1280     1.2410 o          1 BIA      -0.402000
     14 C19         -5.6210    -0.6170     0.4810 ca         1 BIA       0.005000
     15 C21          2.7380    -2.3720    -0.7640 c6         1 BIA       0.198300
     16 N23          0.5170    -1.5640    -0.1300 n3         1 BIA      -0.725600
     17 C24          6.7120     0.3210    -0.0200 ca         1 BIA      -0.163300
     18 C25          2.4470    -0.0710    -0.1190 c6         1 BIA       0.198300
     19 C26          5.3670     0.0790     0.2190 ca         1 BIA      -0.113000
     20 C27         -0.7890    -1.9000     0.4060 c3         1 BIA       0.177800
     21 C28         -6.6730     0.2330     0.1580 ca         1 BIA      -0.266200
     22 C31          4.6940    -0.9660    -0.4290 ca         1 BIA       0.298000
     23 C32         -6.4700     1.4080    -0.5810 ca         1 BIA       0.165100
     24 C37          7.4390    -0.4680    -0.9020 ca         1 BIA      -0.098000
     25 H3          -3.1270     1.1310    -1.0060 ha         1 BIA       0.143000
     26 H4           4.9720    -2.5640    -1.8640 ha         1 BIA       0.117000
     27 H5          -8.2680     1.9880    -0.6150 ho         1 BIA       0.533000
     28 H9          -5.7070     3.3250    -1.8590 ho         1 BIA       0.493000
     29 H10          7.3240    -2.1340    -2.2360 ha         1 BIA       0.118000
     30 H121         0.4830     0.4340     0.4940 h1         1 BIA       0.042950
     31 H122         1.3110    -0.6550     1.6110 h1         1 BIA       0.042950
     32 H161         1.6210    -3.0220     0.9480 h1         1 BIA       0.042950
     33 H162         0.9670    -3.5400    -0.6090 h1         1 BIA       0.042950
     34 H19         -5.8060    -1.5150     1.0520 ha         1 BIA       0.173000
     35 H211         3.3900    -3.2380    -0.6470 h1         1 BIA       0.046950
     36 H212         2.5710    -2.2260    -1.8420 h1         1 BIA       0.046950
     37 H221        -1.8220    -0.7550    -1.0890 hc         1 BIA       0.072700
     38 H222        -1.6060     0.1140     0.4060 hc         1 BIA       0.072700
     39 H251         2.8880     0.7490     0.4430 h1         1 BIA       0.046950
     40 H252         2.2500     0.2950    -1.1360 h1         1 BIA       0.046950
     41 H26          4.8380     0.6930     0.9360 ha         1 BIA       0.128000
     42 H271        -0.7660    -2.0070     1.5020 h1         1 BIA       0.049200
     43 H272        -1.0740    -2.8730     0.0020 h1         1 BIA       0.049200
     44 H37          8.4870    -0.2890    -1.0970 ha         1 BIA       0.133000
     45 C33          7.3550     1.4580     0.7110 c3         1 BIA       0.353300
     46 C22         -1.8360    -0.8750    -0.0010 c3         1 BIA      -0.178400
     47 N14         -7.9970    -0.1200     0.6040 no         1 BIA       0.704200
     48 O5          -7.3970     2.2810    -0.9440 oh         1 BIA      -0.541100
     49 F37          8.6590     1.5760     0.4430 f          1 BIA      -0.115000
     50 F38          6.7860     2.6330     0.4020 f          1 BIA      -0.115000
     51 F39          7.2420     1.3230     2.0410 f          1 BIA      -0.115000
@<TRIPOS>BOND
     1     1    15 1   
     2     1    18 1   
     3     1    22 1   
     4     2     5 ar  
     5     2     9 ar  
     6     2    25 1   
     7     3     8 ar  
     8     3    22 ar  
     9     3    26 1   
    10     4     6 2   
    11     4     9 1   
    12     4    46 1   
    13     5     7 1   
    14     5    23 ar  
    15     7    28 1   
    16     8    24 ar  
    17     8    29 1   
    18     9    14 ar  
    19    10    16 1   
    20    10    18 1   
    21    10    30 1   
    22    10    31 1   
    23    11    15 1   
    24    11    16 1   
    25    11    32 1   
    26    11    33 1   
    27    12    47 1   
    28    13    47 1   
    29    14    21 ar  
    30    14    34 1   
    31    15    35 1   
    32    15    36 1   
    33    16    20 1   
    34    17    19 ar  
    35    17    24 ar  
    36    17    45 1   
    37    18    39 1   
    38    18    40 1   
    39    19    22 ar  
    40    19    41 1   
    41    20    42 1   
    42    20    43 1   
    43    20    46 1   
    44    21    23 ar  
    45    21    47 1   
    46    23    48 1   
    47    24    44 1   
    48    27    48 1   
    49    37    46 1   
    50    38    46 1   
    51    45    49 1   
    52    45    50 1   
    53    45    51 1   
@<TRIPOS>SUBSTRUCTURE
     1 BIA         1 TEMP              0 ****  ****    0 ROOT
