@<TRIPOS>MOLECULE
BIA
   51    53     1     0     0
SMALL
No Charge or Current Charge


@<TRIPOS>ATOM
      1 N2           3.4720    -1.1550    -0.3740 nh         1 BIA      -0.789400
      2 C3          -4.3010     0.9970    -0.5630 ca         1 BIA      -0.050000
      3 C4           5.5830    -1.7040    -1.5200 ca         1 BIA      -0.148000
      4 C6          -3.2800    -0.9940     0.6810 c          1 BIA       0.588700
      5 C7          -5.4170     1.7320    -0.9850 ca         1 BIA       0.089100
      6 O8          -3.4380    -1.8930     1.5000 o          1 BIA      -0.515100
      7 O9          -5.2380     2.8670    -1.7290 oh         1 BIA      -0.526100
      8 C10          6.9660    -1.5120    -1.6780 ca         1 BIA      -0.085000
      9 C11         -4.4660    -0.1770     0.2060 ca         1 BIA      -0.189600
     10 C12          1.1840    -0.2230     0.2580 c6         1 BIA       0.158300
     11 C16          1.4390    -2.6400     0.0040 c6         1 BIA       0.158300
     12 O17         -9.2710     0.2910     0.1470 o          1 BIA      -0.402000
     13 O18         -8.3550    -1.3870     1.1920 o          1 BIA      -0.402000
     14 C19         -5.7760    -0.5900     0.5440 ca         1 BIA       0.005000
     15 C21          2.8030    -2.4450    -0.7360 c6         1 BIA       0.198300
     16 N23          0.5020    -1.4870    -0.1760 n3         1 BIA      -0.725600
     17 C24          6.9490     0.1660     0.0970 ca         1 BIA      -0.163300
     18 C25          2.5460     0.0190    -0.4720 c6         1 BIA       0.198300
     19 C26          5.5600    -0.0460     0.2500 ca         1 BIA      -0.113000
     20 C27         -0.8040    -1.7250     0.4840 c3         1 BIA       0.177800
     21 C28         -6.9170     0.1430     0.1240 ca         1 BIA      -0.266200
     22 C31          4.8650    -0.9720    -0.5530 ca         1 BIA       0.298000
     23 C32         -6.7230     1.3160    -0.6500 ca         1 BIA       0.165100
     24 C37          7.6470    -0.5850    -0.8730 ca         1 BIA      -0.098000
     25 H3          -3.3140     1.3610    -0.8380 ha         1 BIA       0.143000
     26 H4           5.0750    -2.4190    -2.1590 ha         1 BIA       0.117000
     27 H5          -8.6060     1.6580    -0.7780 ho         1 BIA       0.533000
     28 H9          -6.1380     3.2220    -1.9150 ho         1 BIA       0.493000
     29 H10          7.5110    -2.0830    -2.4260 ha         1 BIA       0.118000
     30 H121         0.5460     0.6510     0.0670 h1         1 BIA       0.042950
     31 H122         1.3720    -0.2510     1.3410 h1         1 BIA       0.042950
     32 H161         1.6460    -2.7910     1.0740 h1         1 BIA       0.042950
     33 H162         0.9770    -3.5670    -0.3640 h1         1 BIA       0.042950
     34 H19         -5.9020    -1.4950     1.1390 ha         1 BIA       0.173000
     35 H211         3.4540    -3.2950    -0.4840 h1         1 BIA       0.046950
     36 H212         2.6210    -2.4790    -1.8200 h1         1 BIA       0.046950
     37 H221        -1.9580    -0.5250    -0.9450 hc         1 BIA       0.072700
     38 H222        -1.6160     0.3230     0.4960 hc         1 BIA       0.072700
     39 H251         3.0090     0.9200    -0.0450 h1         1 BIA       0.046950
     40 H252         2.3410     0.2360    -1.5310 h1         1 BIA       0.046950
     41 H26          5.0120     0.5030     1.0100 ha         1 BIA       0.128000
     42 H271        -0.6770    -1.7600     1.5750 h1         1 BIA       0.049200
     43 H272        -1.1870    -2.7080     0.1750 h1         1 BIA       0.049200
     44 H37          8.7190    -0.4550    -1.0070 ha         1 BIA       0.133000
     45 C33          7.6840     1.1710     0.9930 c3         1 BIA       0.353300
     46 C22         -1.8800    -0.6770     0.1370 c3         1 BIA      -0.178400
     47 N14         -8.2800    -0.3540     0.5170 no         1 BIA       0.704200
     48 O5          -7.7700     2.0800    -1.0950 oh         1 BIA      -0.541100
     49 F37          8.8000     1.6660     0.4100 f          1 BIA      -0.115000
     50 F38          6.9100     2.2350     1.3090 f          1 BIA      -0.115000
     51 F39          8.0660     0.6020     2.1580 f          1 BIA      -0.115000
@<TRIPOS>BOND
     1     1    15 1   
     2     1    18 1   
     3     1    22 1   
     4     2     5 ar  
     5     2     9 ar  
     6     2    25 1   
     7     3     8 ar  
     8     3    22 ar  
     9     3    26 1   
    10     4     6 2   
    11     4     9 1   
    12     4    46 1   
    13     5     7 1   
    14     5    23 ar  
    15     7    28 1   
    16     8    24 ar  
    17     8    29 1   
    18     9    14 ar  
    19    10    16 1   
    20    10    18 1   
    21    10    30 1   
    22    10    31 1   
    23    11    15 1   
    24    11    16 1   
    25    11    32 1   
    26    11    33 1   
    27    12    47 1   
    28    13    47 1   
    29    14    21 ar  
    30    14    34 1   
    31    15    35 1   
    32    15    36 1   
    33    16    20 1   
    34    17    19 ar  
    35    17    24 ar  
    36    17    45 1   
    37    18    39 1   
    38    18    40 1   
    39    19    22 ar  
    40    19    41 1   
    41    20    42 1   
    42    20    43 1   
    43    20    46 1   
    44    21    23 ar  
    45    21    47 1   
    46    23    48 1   
    47    24    44 1   
    48    27    48 1   
    49    37    46 1   
    50    38    46 1   
    51    45    49 1   
    52    45    50 1   
    53    45    51 1   
@<TRIPOS>SUBSTRUCTURE
     1 BIA         1 TEMP              0 ****  ****    0 ROOT
