@<TRIPOS>MOLECULE
BIB
   15    14     1     0     0
SMALL
bcc


@<TRIPOS>ATOM
      1 O7           1.9800     0.8510    -0.2810 o          1 BIB      -0.844800
      2 C5           1.2370    -0.1140    -0.0150 c          1 BIB       0.926600
      3 O6           1.5670    -1.3190    -0.0400 o          1 BIB      -0.844800
      4 C3          -0.2230     0.1890     0.3970 c3         1 BIB      -0.193700
      5 C2          -0.5570     1.6730     0.3730 c3         1 BIB      -0.054100
      6 C4          -1.1900    -0.6230    -0.4650 c3         1 BIB       0.158800
      7 N1          -2.5640    -0.5340     0.0180 n8         1 BIB      -0.896800
      8 H3          -0.3470    -0.1740     1.4260 hc         1 BIB       0.039700
      9 H21         -0.4940     2.0790    -0.6390 hc         1 BIB       0.008700
     10 H22         -1.5660     1.8640     0.7450 hc         1 BIB       0.008700
     11 H23          0.1260     2.2460     0.9990 hc         1 BIB       0.008700
     12 H41         -1.0820    -0.2990    -1.5130 h1         1 BIB       0.029700
     13 H42         -0.8900    -1.6700    -0.4320 h1         1 BIB       0.029700
     14 HN11        -2.9490     0.3740    -0.2050 hn         1 BIB       0.310800
     15 HN12        -3.1360    -1.1990    -0.4870 hn         1 BIB       0.310800
@<TRIPOS>BOND
     1     1     2 1   
     2     2     3 1   
     3     2     4 1   
     4     4     5 1   
     5     4     6 1   
     6     4     8 1   
     7     5     9 1   
     8     5    10 1   
     9     5    11 1   
    10     6     7 1   
    11     6    12 1   
    12     6    13 1   
    13     7    14 1   
    14     7    15 1   
@<TRIPOS>SUBSTRUCTURE
     1 BIB         1 TEMP              0 ****  ****    0 ROOT
