@<TRIPOS>MOLECULE
BIB
   15    14     1     0     0
SMALL
No Charge or Current Charge


@<TRIPOS>ATOM
      1 O7           1.6080     0.2960    -1.0870 o          1 BIB      -0.739500
      2 C5           1.2210    -0.1380    -0.0120 c          1 BIB       0.716000
      3 O6           1.9400    -0.7600     0.7560 o          1 BIB      -0.739500
      4 C3          -0.2450     0.1060     0.4030 c3         1 BIB      -0.193700
      5 C2          -0.5340     1.6210     0.5700 c3         1 BIB      -0.054100
      6 C4          -1.1900    -0.5890    -0.6010 c3         1 BIB       0.158800
      7 N1          -2.5910    -0.5730    -0.1400 n8         1 BIB      -1.007200
      8 H3          -0.3910    -0.3650     1.3830 hc         1 BIB       0.039700
      9 H21         -0.4550     2.1450    -0.3900 hc         1 BIB       0.008700
     10 H22         -1.5400     1.7910     0.9720 hc         1 BIB       0.008700
     11 H23          0.1840     2.0710     1.2650 hc         1 BIB       0.008700
     12 H41         -1.1320    -0.0850    -1.5760 h1         1 BIB       0.029700
     13 H42         -0.8810    -1.6350    -0.7340 h1         1 BIB       0.029700
     14 HN11        -2.8900     0.4030    -0.0440 hn         1 BIB       0.366000
     15 HN12        -3.1910    -0.9460    -0.8840 hn         1 BIB       0.366000
@<TRIPOS>BOND
     1     1     2 1   
     2     2     3 1   
     3     2     4 1   
     4     4     5 1   
     5     4     6 1   
     6     4     8 1   
     7     5     9 1   
     8     5    10 1   
     9     5    11 1   
    10     6     7 1   
    11     6    12 1   
    12     6    13 1   
    13     7    14 1   
    14     7    15 1   
@<TRIPOS>SUBSTRUCTURE
     1 BIB         1 TEMP              0 ****  ****    0 ROOT
