@<TRIPOS>MOLECULE
BIC
   39    41     1     0     0
SMALL
No Charge or Current Charge


@<TRIPOS>ATOM
      1 C1           1.4520    -0.1910    -2.7700 c5         1 BIC      -0.009300
      2 C2           0.8750    -0.4110    -4.2060 c5         1 BIC      -0.080400
      3 C3          -0.5300     0.2470    -4.0940 c5         1 BIC       0.122800
      4 C4          -2.1730     0.4100    -2.2230 c6         1 BIC       0.127800
      5 C5          -2.4340    -0.1660    -0.8200 c6         1 BIC      -0.080400
      6 C6          -1.2460     0.1130     0.1520 c6         1 BIC       0.130200
      7 C7           0.1660    -0.0150    -0.5800 c          1 BIC       0.521000
      8 N1          -0.9920    -0.2720    -2.7860 n3         1 BIC      -0.416600
      9 N2           0.1860    -0.1690    -1.9970 n          1 BIC      -0.303200
     10 O1           1.2210     0.0920     0.0370 o          1 BIC      -0.559000
     11 C8           2.2500     1.1380    -2.7130 c          1 BIC       0.580900
     12 O2           3.4430     1.2450    -2.4470 o          1 BIC      -0.495100
     13 N3          -1.4130     1.5110     0.6840 n8         1 BIC      -0.999200
     14 C9          -1.3080    -0.9040     1.3520 c3         1 BIC      -0.007100
     15 C10         -0.5230    -0.5430     2.6180 ca         1 BIC      -0.082300
     16 C11         -1.0850     0.3170     3.5860 ca         1 BIC      -0.091000
     17 C12         -0.3760     0.6290     4.7590 ca         1 BIC      -0.115500
     18 C13          0.8960     0.0760     4.9810 ca         1 BIC      -0.107000
     19 C14          1.4560    -0.7930     4.0310 ca         1 BIC      -0.115500
     20 C15          0.7470    -1.1060     2.8570 ca         1 BIC      -0.091000
     21 H1           2.1170    -1.0070    -2.4600 h1         1 BIC       0.097700
     22 H21          0.7790    -1.4800    -4.4260 hc         1 BIC       0.068200
     23 H22          1.4920     0.0290    -4.9980 hc         1 BIC       0.068200
     24 H31         -1.1980    -0.0440    -4.9170 h1         1 BIC       0.056200
     25 H32         -0.4530     1.3430    -4.0870 h1         1 BIC       0.056200
     26 H41         -3.0510     0.2400    -2.8620 h1         1 BIC       0.050200
     27 H42         -2.0100     1.4960    -2.1590 h1         1 BIC       0.050200
     28 H51         -2.5910    -1.2500    -0.9170 hc         1 BIC       0.071200
     29 H52         -3.3710     0.2410    -0.4150 hc         1 BIC       0.071200
     30 H8           1.6450     2.0450    -2.9360 h4         1 BIC      -0.013800
     31 HN31        -0.7380     1.6330     1.4480 hn         1 BIC       0.412500
     32 HN32        -1.0890     2.1800    -0.0240 hn         1 BIC       0.412500
     33 H91         -2.3570    -1.0420     1.6430 hc         1 BIC       0.055200
     34 H92         -0.9920    -1.8930     0.9960 hc         1 BIC       0.055200
     35 H11         -2.0730     0.7430     3.4280 ha         1 BIC       0.115000
     36 H12         -0.8150     1.2970     5.4970 ha         1 BIC       0.110500
     37 H13          1.4440     0.3170     5.8900 ha         1 BIC       0.110000
     38 H14          2.4380    -1.2280     4.2030 ha         1 BIC       0.110500
     39 H15          1.1890    -1.7840     2.1310 ha         1 BIC       0.115000
@<TRIPOS>BOND
     1     1     2 1   
     2     1     9 1   
     3     1    11 1   
     4     1    21 1   
     5     2     3 1   
     6     2    22 1   
     7     2    23 1   
     8     3     8 1   
     9     3    24 1   
    10     3    25 1   
    11     4     5 1   
    12     4     8 1   
    13     4    26 1   
    14     4    27 1   
    15     5     6 1   
    16     5    28 1   
    17     5    29 1   
    18     6     7 1   
    19     6    13 1   
    20     6    14 1   
    21     7     9 1   
    22     7    10 2   
    23     8     9 1   
    24    11    12 2   
    25    11    30 1   
    26    13    31 1   
    27    13    32 1   
    28    14    15 1   
    29    14    33 1   
    30    14    34 1   
    31    15    16 ar  
    32    15    20 ar  
    33    16    17 ar  
    34    16    35 1   
    35    17    18 ar  
    36    17    36 1   
    37    18    19 ar  
    38    18    37 1   
    39    19    20 ar  
    40    19    38 1   
    41    20    39 1   
@<TRIPOS>SUBSTRUCTURE
     1 BIC         1 TEMP              0 ****  ****    0 ROOT
