@<TRIPOS>MOLECULE
BIC
   39    41     1     0     0
SMALL
bcc


@<TRIPOS>ATOM
      1 C1           1.3840    -0.2010    -2.5850 c5         1 BIC      -0.009300
      2 C2           0.9410    -0.3180    -4.0590 c5         1 BIC      -0.080400
      3 C3          -0.4980     0.1660    -4.0220 c5         1 BIC       0.122800
      4 C4          -2.1580     0.3180    -2.2360 c6         1 BIC       0.127800
      5 C5          -2.4210    -0.1910    -0.8360 c6         1 BIC      -0.080400
      6 C6          -1.2910     0.1820     0.1310 c6         1 BIC       0.130200
      7 C7           0.0750     0.1140    -0.5610 c          1 BIC       0.663500
      8 N1          -0.9780    -0.3450    -2.7470 n3         1 BIC      -0.416600
      9 N2           0.1220    -0.1230    -1.8780 n          1 BIC      -0.370200
     10 O1           1.1210     0.3110     0.0540 o          1 BIC      -0.634500
     11 C8           2.1860     1.0600    -2.3610 c          1 BIC       0.580900
     12 O2           3.3880     1.0850    -2.3340 o          1 BIC      -0.495100
     13 N3          -1.5220     1.5270     0.6360 n8         1 BIC      -0.888800
     14 C9          -1.3300    -0.8260     1.3010 c3         1 BIC      -0.007100
     15 C10         -0.4960    -0.5150     2.5130 ca         1 BIC      -0.082300
     16 C11         -0.9490     0.3880     3.4740 ca         1 BIC      -0.109000
     17 C12         -0.1980     0.6590     4.6110 ca         1 BIC      -0.133500
     18 C13          1.0170     0.0190     4.8130 ca         1 BIC      -0.125000
     19 C14          1.4710    -0.8960     3.8710 ca         1 BIC      -0.133500
     20 C15          0.7200    -1.1570     2.7340 ca         1 BIC      -0.109000
     21 H1           1.9740    -1.0640    -2.2690 h1         1 BIC       0.097700
     22 H21          0.9950    -1.3600    -4.3720 hc         1 BIC       0.068200
     23 H22          1.5610     0.2660    -4.7370 hc         1 BIC       0.068200
     24 H31         -1.1050    -0.2360    -4.8320 h1         1 BIC       0.056200
     25 H32         -0.5440     1.2640    -4.0620 h1         1 BIC       0.056200
     26 H41         -2.9870     0.0720    -2.8980 h1         1 BIC       0.050200
     27 H42         -2.0420     1.4150    -2.2510 h1         1 BIC       0.050200
     28 H51         -2.5330    -1.2770    -0.8790 hc         1 BIC       0.071200
     29 H52         -3.3560     0.2150    -0.4480 hc         1 BIC       0.071200
     30 H8           1.5820     1.9850    -2.3010 h4         1 BIC      -0.013800
     31 HN31        -0.7330     1.8360     1.1900 hn         1 BIC       0.357300
     32 HN32        -1.6070     2.1850    -0.1300 hn         1 BIC       0.357300
     33 H91         -2.3790    -0.8910     1.6050 hc         1 BIC       0.055200
     34 H92         -1.0610    -1.8120     0.9120 hc         1 BIC       0.055200
     35 H11         -1.9030     0.8820     3.3340 ha         1 BIC       0.133000
     36 H12         -0.5690     1.3650     5.3440 ha         1 BIC       0.128500
     37 H13          1.6020     0.2240     5.7010 ha         1 BIC       0.128000
     38 H14          2.4130    -1.4080     4.0240 ha         1 BIC       0.128500
     39 H15          1.0850    -1.8730     2.0070 ha         1 BIC       0.133000
@<TRIPOS>BOND
     1     1     2 1   
     2     1     9 1   
     3     1    11 1   
     4     1    21 1   
     5     2     3 1   
     6     2    22 1   
     7     2    23 1   
     8     3     8 1   
     9     3    24 1   
    10     3    25 1   
    11     4     5 1   
    12     4     8 1   
    13     4    26 1   
    14     4    27 1   
    15     5     6 1   
    16     5    28 1   
    17     5    29 1   
    18     6     7 1   
    19     6    13 1   
    20     6    14 1   
    21     7     9 1   
    22     7    10 2   
    23     8     9 1   
    24    11    12 2   
    25    11    30 1   
    26    13    31 1   
    27    13    32 1   
    28    14    15 1   
    29    14    33 1   
    30    14    34 1   
    31    15    16 ar  
    32    15    20 ar  
    33    16    17 ar  
    34    16    35 1   
    35    17    18 ar  
    36    17    36 1   
    37    18    19 ar  
    38    18    37 1   
    39    19    20 ar  
    40    19    38 1   
    41    20    39 1   
@<TRIPOS>SUBSTRUCTURE
     1 BIC         1 TEMP              0 ****  ****    0 ROOT
