@<TRIPOS>MOLECULE
BID
  118   120     1     0     0
SMALL
bcc


@<TRIPOS>ATOM
      1 O5           0.8800    -2.8830    -3.5820 o          1 BID      -0.603100
      2 C18          0.8440    -2.4880    -2.4230 c          1 BID       0.678100
      3 C16          1.9380    -2.8410    -1.4290 c3         1 BID      -0.171700
      4 C17          1.9750    -4.3550    -1.2280 c3         1 BID      -0.083100
      5 C15          3.2660    -2.2790    -1.9450 c3         1 BID       0.143100
      6 O4           3.1440    -0.9140    -2.2780 oh         1 BID      -0.604800
      7 C14          4.3840    -2.5170    -0.9330 c3         1 BID       0.065000
      8 N1           5.5760    -1.8030    -1.3170 ns         1 BID      -0.564900
      9 C13          6.7520    -1.9680    -0.6930 c          1 BID       0.674100
     10 O3           6.9280    -2.8210     0.1670 o          1 BID      -0.612100
     11 C12          7.8540    -1.0220    -1.1150 c3         1 BID      -0.190400
     12 C11          8.2710    -0.1620     0.0820 c6         1 BID       0.161100
     13 C9           9.3440     0.8860    -0.2290 c6         1 BID      -0.091700
     14 C10         10.5590     0.2850    -0.9210 c3         1 BID      -0.086100
     15 C8           8.7530     2.0640    -0.9980 c6         1 BID      -0.073400
     16 C7           7.5330     2.6170    -0.2720 c6         1 BID      -0.107400
     17 O2           7.1400     0.4320     0.6980 os         1 BID      -0.413600
     18 C6           6.5370     1.4980    -0.0090 c6         1 BID       0.153100
     19 C5           5.3470     1.9640     0.8290 c3         1 BID      -0.172400
     20 C4           4.2790     0.8990     0.8910 c          1 BID       0.596300
     21 O1           3.4600     0.8060    -0.0110 o          1 BID      -0.575100
     22 C3           4.2810    -0.0030     2.0500 ce         1 BID      -0.259200
     23 C2           3.2890    -0.8690     2.2800 c2         1 BID      -0.082200
     24 C1           3.2290    -1.8130     3.4230 c3         1 BID      -0.073900
     25 N2          -0.1590    -1.7430    -1.9430 ns         1 BID      -0.569900
     26 C19         -1.3170    -1.3730    -2.7310 c3         1 BID       0.104000
     27 C20         -2.2130    -0.4260    -1.9500 c3         1 BID      -0.091400
     28 C21         -3.4760    -0.0800    -2.7300 c3         1 BID      -0.067400
     29 C22         -4.4130     0.8420    -1.9670 c6         1 BID       0.157100
     30 C23         -5.7370     1.1190    -2.6810 c6         1 BID      -0.090700
     31 C24         -6.5790    -0.1400    -2.8520 c3         1 BID      -0.085100
     32 C25         -6.5160     2.1740    -1.8940 c6         1 BID      -0.070400
     33 C26         -5.6700     3.4080    -1.6170 c6         1 BID      -0.085400
     34 C27         -4.3370     3.0320    -0.9790 c6         1 BID       0.352600
     35 O6          -3.6950     2.0520    -1.7550 os         1 BID      -0.437600
     36 C28         -3.3840     4.2210    -0.8900 c6         1 BID      -0.086400
     37 C29         -2.1610     3.9110    -0.0330 c6         1 BID      -0.070400
     38 C30         -2.5880     3.3320     1.3120 c6         1 BID      -0.105400
     39 C31         -3.5130     2.1460     1.0930 c6         1 BID       0.151100
     40 O7          -4.6300     2.5430     0.3060 os         1 BID      -0.437600
     41 C32         -4.0590     1.5340     2.3700 c3         1 BID      -0.068400
     42 C33         -4.8940     0.2880     2.0950 c3         1 BID      -0.069400
     43 C34         -5.5070    -0.3760     3.3360 c3         1 BID      -0.025500
     44 C35         -4.4440    -0.8700     4.3160 c3         1 BID      -0.084100
     45 C36         -6.3710    -1.5130     2.8770 c2         1 BID      -0.151200
     46 C37         -7.6950    -1.5360     2.7180 c2         1 BID      -0.144400
     47 C38         -8.6150    -0.4010     3.0580 c3         1 BID      -0.054900
     48 C39         -8.3390    -2.7540     2.0880 c3         1 BID       0.182300
     49 C40         -8.8290    -2.4590     0.6730 c3         1 BID      -0.125100
     50 O8          -9.3730    -3.2960     2.8920 oh         1 BID      -0.590800
     51 H16          1.7200    -2.3710    -0.4620 hc         1 BID       0.045700
     52 H171         2.2710    -4.8660    -2.1440 hc         1 BID       0.045033
     53 H172         2.6780    -4.6330    -0.4450 hc         1 BID       0.045033
     54 H173         0.9960    -4.7320    -0.9310 hc         1 BID       0.045033
     55 H15          3.5220    -2.7880    -2.8790 h1         1 BID       0.095700
     56 HO4          3.0410    -0.3910    -1.4690 ho         1 BID       0.427000
     57 H141         4.6010    -3.5840    -0.8690 h1         1 BID       0.052700
     58 H142         4.0580    -2.2000     0.0660 h1         1 BID       0.052700
     59 HN1          5.4660    -1.0350    -1.9600 hn         1 BID       0.325500
     60 H121         7.5590    -0.4220    -1.9790 hc         1 BID       0.066200
     61 H122         8.7100    -1.6200    -1.4340 hc         1 BID       0.066200
     62 H11          8.6750    -0.8410     0.8380 h1         1 BID       0.091700
     63 H9           9.6740     1.2710     0.7440 hc         1 BID       0.059700
     64 H101        11.3640     1.0180    -0.9810 hc         1 BID       0.037700
     65 H102        10.9410    -0.5800    -0.3750 hc         1 BID       0.037700
     66 H103        10.3330    -0.0370    -1.9390 hc         1 BID       0.037700
     67 H81          8.4730     1.7580    -2.0110 hc         1 BID       0.045200
     68 H82          9.5100     2.8440    -1.1130 hc         1 BID       0.045200
     69 H71          7.0500     3.3970    -0.8650 hc         1 BID       0.052200
     70 H72          7.8360     3.0700     0.6780 hc         1 BID       0.052200
     71 H6           6.1550     1.1540    -0.9820 h1         1 BID       0.039700
     72 H51          4.9240     2.8550     0.3610 hc         1 BID       0.072200
     73 H52          5.6940     2.2350     1.8280 hc         1 BID       0.072200
     74 H3           5.1170     0.0680     2.7360 ha         1 BID       0.150000
     75 H2           2.4500    -0.8970     1.5890 ha         1 BID       0.123000
     76 H11A         3.1720    -2.8410     3.0570 hc         1 BID       0.051367
     77 H12          4.0920    -1.7260     4.0790 hc         1 BID       0.051367
     78 H13          2.3220    -1.6490     4.0090 hc         1 BID       0.051367
     79 HN2         -0.1540    -1.4940    -0.9670 hn         1 BID       0.308500
     80 H191        -0.9930    -0.8940    -3.6580 h1         1 BID       0.051200
     81 H192        -1.8780    -2.2690    -3.0170 h1         1 BID       0.051200
     82 H201        -2.4940    -0.8930    -1.0000 hc         1 BID       0.047700
     83 H202        -1.6560     0.4810    -1.7040 hc         1 BID       0.047700
     84 H211        -3.2160     0.3810    -3.6900 hc         1 BID       0.050700
     85 H212        -4.0070    -1.0050    -2.9660 hc         1 BID       0.050700
     86 H22         -4.6460     0.3680    -1.0010 h1         1 BID       0.041700
     87 H23         -5.5070     1.5280    -3.6740 hc         1 BID       0.056700
     88 H241        -7.5480     0.1070    -3.2890 hc         1 BID       0.034367
     89 H242        -6.1080    -0.8770    -3.5020 hc         1 BID       0.034367
     90 H243        -6.7690    -0.6180    -1.8870 hc         1 BID       0.034367
     91 H251        -6.8580     1.7350    -0.9510 hc         1 BID       0.046700
     92 H252        -7.4170     2.4540    -2.4450 hc         1 BID       0.046700
     93 H261        -6.2030     4.1120    -0.9730 hc         1 BID       0.056200
     94 H262        -5.4610     3.9310    -2.5550 hc         1 BID       0.056200
     95 H281        -3.0910     4.5320    -1.8960 hc         1 BID       0.055700
     96 H282        -3.9350     5.0570    -0.4490 hc         1 BID       0.055700
     97 H291        -1.5130     3.1960    -0.5480 hc         1 BID       0.048200
     98 H292        -1.5720     4.8190     0.1100 hc         1 BID       0.048200
     99 H301        -1.7170     3.0140     1.8900 hc         1 BID       0.047200
    100 H302        -3.1060     4.0950     1.9050 hc         1 BID       0.047200
    101 H31         -2.9450     1.3630     0.5670 h1         1 BID       0.038700
    102 H321        -3.2080     1.2880     3.0110 hc         1 BID       0.046200
    103 H322        -4.6540     2.2760     2.9160 hc         1 BID       0.046200
    104 H331        -5.7070     0.5440     1.4120 hc         1 BID       0.044700
    105 H332        -4.2760    -0.4480     1.5660 hc         1 BID       0.044700
    106 H34         -6.1190     0.3750     3.8460 hc         1 BID       0.052700
    107 H351        -3.8530    -0.0470     4.7180 hc         1 BID       0.033367
    108 H352        -4.8990    -1.3900     5.1600 hc         1 BID       0.033367
    109 H353        -3.7560    -1.5650     3.8280 hc         1 BID       0.033367
    110 H36         -5.8170    -2.4020     2.5750 ha         1 BID       0.115000
    111 H381        -8.1180     0.3920     3.6120 hc         1 BID       0.039700
    112 H382        -9.0400     0.0500     2.1580 hc         1 BID       0.039700
    113 H383        -9.4580    -0.7390     3.6660 hc         1 BID       0.039700
    114 H39         -7.5800    -3.5390     2.0250 h1         1 BID       0.070700
    115 H401        -8.0120    -2.0810     0.0580 hc         1 BID       0.041700
    116 H402        -9.2160    -3.3620     0.2000 hc         1 BID       0.041700
    117 H403        -9.6230    -1.7080     0.6640 hc         1 BID       0.041700
    118 HO8        -10.1570    -2.7470     2.7920 ho         1 BID       0.398000
@<TRIPOS>BOND
     1     1     2 2   
     2     2     3 1   
     3     2    25 1   
     4     3     4 1   
     5     3     5 1   
     6     3    51 1   
     7     4    52 1   
     8     4    53 1   
     9     4    54 1   
    10     5     6 1   
    11     5     7 1   
    12     5    55 1   
    13     6    56 1   
    14     7     8 1   
    15     7    57 1   
    16     7    58 1   
    17     8     9 1   
    18     8    59 1   
    19     9    10 2   
    20     9    11 1   
    21    11    12 1   
    22    11    60 1   
    23    11    61 1   
    24    12    13 1   
    25    12    17 1   
    26    12    62 1   
    27    13    14 1   
    28    13    15 1   
    29    13    63 1   
    30    14    64 1   
    31    14    65 1   
    32    14    66 1   
    33    15    16 1   
    34    15    67 1   
    35    15    68 1   
    36    16    18 1   
    37    16    69 1   
    38    16    70 1   
    39    17    18 1   
    40    18    19 1   
    41    18    71 1   
    42    19    20 1   
    43    19    72 1   
    44    19    73 1   
    45    20    21 2   
    46    20    22 1   
    47    22    23 2   
    48    22    74 1   
    49    23    24 1   
    50    23    75 1   
    51    24    76 1   
    52    24    77 1   
    53    24    78 1   
    54    25    26 1   
    55    25    79 1   
    56    26    27 1   
    57    26    80 1   
    58    26    81 1   
    59    27    28 1   
    60    27    82 1   
    61    27    83 1   
    62    28    29 1   
    63    28    84 1   
    64    28    85 1   
    65    29    30 1   
    66    29    35 1   
    67    29    86 1   
    68    30    31 1   
    69    30    32 1   
    70    30    87 1   
    71    31    88 1   
    72    31    89 1   
    73    31    90 1   
    74    32    33 1   
    75    32    91 1   
    76    32    92 1   
    77    33    34 1   
    78    33    93 1   
    79    33    94 1   
    80    34    35 1   
    81    34    36 1   
    82    34    40 1   
    83    36    37 1   
    84    36    95 1   
    85    36    96 1   
    86    37    38 1   
    87    37    97 1   
    88    37    98 1   
    89    38    39 1   
    90    38    99 1   
    91    38   100 1   
    92    39    40 1   
    93    39    41 1   
    94    39   101 1   
    95    41    42 1   
    96    41   102 1   
    97    41   103 1   
    98    42    43 1   
    99    42   104 1   
   100    42   105 1   
   101    43    44 1   
   102    43    45 1   
   103    43   106 1   
   104    44   107 1   
   105    44   108 1   
   106    44   109 1   
   107    45    46 2   
   108    45   110 1   
   109    46    47 1   
   110    46    48 1   
   111    47   111 1   
   112    47   112 1   
   113    47   113 1   
   114    48    49 1   
   115    48    50 1   
   116    48   114 1   
   117    49   115 1   
   118    49   116 1   
   119    49   117 1   
   120    50   118 1   
@<TRIPOS>SUBSTRUCTURE
     1 BID         1 TEMP              0 ****  ****    0 ROOT
