@<TRIPOS>MOLECULE
BID
  118   120     1     0     0
SMALL
No Charge or Current Charge


@<TRIPOS>ATOM
      1 O5           0.3420    -3.1350    -4.3810 o          1 BID      -0.603100
      2 C18          0.4810    -3.4580    -3.2090 c          1 BID       0.611100
      3 C16          1.8550    -3.5360    -2.5220 c3         1 BID      -0.171700
      4 C17          2.7660    -4.5780    -3.2210 c3         1 BID      -0.083100
      5 C15          2.4830    -2.1200    -2.4500 c3         1 BID       0.166300
      6 O4           1.5400    -1.2200    -1.8440 oh         1 BID      -0.667000
      7 C14          3.8250    -2.0710    -1.6650 c3         1 BID       0.065000
      8 N1           4.1190    -0.7310    -1.1490 ns         1 BID      -0.497900
      9 C13          5.2600    -0.3760    -0.4730 c          1 BID       0.607100
     10 O3           6.2070    -1.1380    -0.3420 o          1 BID      -0.612100
     11 C12          5.2690     1.0540     0.0600 c3         1 BID      -0.190400
     12 C11          5.2730     1.0950     1.6170 c6         1 BID       0.184300
     13 C9           5.1340     2.5170     2.2490 c6         1 BID      -0.091700
     14 C10          6.2120     3.5190     1.7480 c3         1 BID      -0.086100
     15 C8           3.6960     3.0780     2.0710 c6         1 BID      -0.073400
     16 C7           2.6490     2.0560     2.5760 c6         1 BID      -0.107400
     17 O2           4.2220     0.2360     2.1270 os         1 BID      -0.460000
     18 C6           2.8640     0.6770     1.9040 c6         1 BID       0.176300
     19 C5           1.9420    -0.4120     2.4960 c3         1 BID      -0.172400
     20 C4           2.0360    -1.7150     1.7100 c          1 BID       0.596300
     21 O1           1.3320    -1.9080     0.7270 o          1 BID      -0.575100
     22 C3           2.9970    -2.7480     2.1930 ce         1 BID      -0.309200
     23 C2           3.0840    -4.0020     1.6930 c2         1 BID      -0.132200
     24 C1           4.0500    -5.0620     2.1730 c3         1 BID      -0.073900
     25 N2          -0.5890    -3.7670    -2.3970 ns         1 BID      -0.502900
     26 C19         -1.9730    -3.4080    -2.7010 c3         1 BID       0.104000
     27 C20         -2.2110    -1.9210    -2.3720 c3         1 BID      -0.091400
     28 C21         -3.6260    -1.4050    -2.7180 c3         1 BID      -0.067400
     29 C22         -3.8530     0.0820    -2.3100 c6         1 BID       0.180300
     30 C23         -5.2570     0.6530    -2.6750 c6         1 BID      -0.090700
     31 C24         -6.4220    -0.1000    -1.9710 c3         1 BID      -0.085100
     32 C25         -5.3010     2.1660    -2.3270 c6         1 BID      -0.070400
     33 C26         -4.0990     2.9190    -2.9530 c6         1 BID      -0.085400
     34 C27         -2.7470     2.2450    -2.5880 c6         1 BID       0.399000
     35 O6          -2.8190     0.8550    -2.9660 os         1 BID      -0.484000
     36 C28         -1.5750     2.9430    -3.3410 c6         1 BID      -0.086400
     37 C29         -0.1900     2.4250    -2.8710 c6         1 BID      -0.070400
     38 C30         -0.0790     2.4900    -1.3290 c6         1 BID      -0.105400
     39 C31         -1.2830     1.7590    -0.6920 c6         1 BID       0.174300
     40 O7          -2.5150     2.3510    -1.1670 os         1 BID      -0.484000
     41 C32         -1.3120     1.8480     0.8560 c3         1 BID      -0.068400
     42 C33         -2.3900     0.9390     1.4970 c3         1 BID      -0.069400
     43 C34         -2.6900     1.2160     2.9920 c3         1 BID      -0.025500
     44 C35         -1.4780     0.9420     3.9120 c3         1 BID      -0.084100
     45 C36         -3.9040     0.4050     3.4280 c2         1 BID      -0.201200
     46 C37         -5.2050     0.6670     3.1760 c2         1 BID      -0.144400
     47 C38         -5.7060     1.8810     2.3880 c3         1 BID      -0.054900
     48 C39         -6.3060    -0.2890     3.6390 c3         1 BID       0.205500
     49 C40         -7.0450    -0.9790     2.4750 c3         1 BID      -0.125100
     50 O8          -7.2550     0.4000     4.4570 oh         1 BID      -0.653000
     51 H16          1.6990    -3.8800    -1.4920 hc         1 BID       0.045700
     52 H171         3.0060    -4.2660    -4.2440 hc         1 BID       0.045033
     53 H172         3.7050    -4.7150    -2.6720 hc         1 BID       0.045033
     54 H173         2.2640    -5.5530    -3.2710 hc         1 BID       0.045033
     55 H15          2.6910    -1.7820    -3.4760 h1         1 BID       0.095700
     56 HO4          1.4260    -1.5160    -0.9010 ho         1 BID       0.466000
     57 H141         4.6450    -2.3950    -2.3190 h1         1 BID       0.052700
     58 H142         3.7780    -2.7620    -0.8130 h1         1 BID       0.052700
     59 HN1          3.3960    -0.0270    -1.2380 hn         1 BID       0.325500
     60 H121         4.4150     1.6090    -0.3420 hc         1 BID       0.066200
     61 H122         6.1870     1.5280    -0.3040 hc         1 BID       0.066200
     62 H11          6.2320     0.6680     1.9470 h1         1 BID       0.091700
     63 H9           5.3170     2.4080     3.3270 hc         1 BID       0.059700
     64 H101         6.1640     4.4600     2.3090 hc         1 BID       0.037700
     65 H102         7.2220     3.1100     1.8740 hc         1 BID       0.037700
     66 H103         6.0780     3.7630     0.6870 hc         1 BID       0.037700
     67 H81          3.5040     3.3150     1.0150 hc         1 BID       0.045200
     68 H82          3.5870     4.0210     2.6240 hc         1 BID       0.045200
     69 H71          1.6370     2.4270     2.3680 hc         1 BID       0.052200
     70 H72          2.7280     1.9550     3.6670 hc         1 BID       0.052200
     71 H6           2.6650     0.7570     0.8260 h1         1 BID       0.039700
     72 H51          0.9050    -0.0680     2.4650 hc         1 BID       0.072200
     73 H52          2.2490    -0.5900     3.5330 hc         1 BID       0.072200
     74 H3           3.6420    -2.4370     3.0140 ha         1 BID       0.200000
     75 H2           2.4320    -4.3250     0.8780 ha         1 BID       0.173000
     76 H11A         3.9120    -6.0020     1.6250 hc         1 BID       0.051367
     77 H12          5.0890    -4.7410     2.0310 hc         1 BID       0.051367
     78 H13          3.9060    -5.2720     3.2400 hc         1 BID       0.051367
     79 HN2         -0.3680    -4.0410    -1.4480 hn         1 BID       0.308500
     80 H191        -2.1770    -3.5960    -3.7640 h1         1 BID       0.051200
     81 H192        -2.6470    -4.0360    -2.1030 h1         1 BID       0.051200
     82 H201        -2.0240    -1.7610    -1.3020 hc         1 BID       0.047700
     83 H202        -1.4690    -1.3230    -2.9130 hc         1 BID       0.047700
     84 H211        -3.8010    -1.5270    -3.7940 hc         1 BID       0.050700
     85 H212        -4.3540    -2.0450    -2.2080 hc         1 BID       0.050700
     86 H22         -3.7130     0.1470    -1.2210 h1         1 BID       0.041700
     87 H23         -5.4150     0.5360    -3.7570 hc         1 BID       0.056700
     88 H241        -7.3860     0.3730    -2.1900 hc         1 BID       0.034367
     89 H242        -6.4930    -1.1420    -2.3050 hc         1 BID       0.034367
     90 H243        -6.2930    -0.1040    -0.8810 hc         1 BID       0.034367
     91 H251        -5.2840     2.2960    -1.2350 hc         1 BID       0.046700
     92 H252        -6.2420     2.6100    -2.6790 hc         1 BID       0.046700
     93 H261        -4.0990     3.9640    -2.6160 hc         1 BID       0.056200
     94 H262        -4.2120     2.9450    -4.0450 hc         1 BID       0.056200
     95 H281        -1.6820     2.7900    -4.4230 hc         1 BID       0.055700
     96 H282        -1.6310     4.0280    -3.1760 hc         1 BID       0.055700
     97 H291        -0.0510     1.3870    -3.2050 hc         1 BID       0.048200
     98 H292         0.6140     3.0130    -3.3350 hc         1 BID       0.048200
     99 H301         0.8620     2.0280    -0.9990 hc         1 BID       0.047200
    100 H302        -0.0550     3.5370    -0.9960 hc         1 BID       0.047200
    101 H31         -1.2510     0.6960    -0.9730 h1         1 BID       0.038700
    102 H321        -0.3320     1.5650     1.2530 hc         1 BID       0.046200
    103 H322        -1.4820     2.8880     1.1610 hc         1 BID       0.046200
    104 H331        -3.3240     1.0600     0.9370 hc         1 BID       0.044700
    105 H332        -2.0950    -0.1100     1.3710 hc         1 BID       0.044700
    106 H34         -2.9230     2.2830     3.0950 hc         1 BID       0.052700
    107 H351        -0.6330     1.5920     3.6560 hc         1 BID       0.033367
    108 H352        -1.7420     1.1360     4.9590 hc         1 BID       0.033367
    109 H353        -1.1520    -0.1020     3.8290 hc         1 BID       0.033367
    110 H36         -3.6430    -0.4980     3.9840 ha         1 BID       0.165000
    111 H381        -4.8960     2.5440     2.0670 hc         1 BID       0.039700
    112 H382        -6.2330     1.5770     1.4760 hc         1 BID       0.039700
    113 H383        -6.3920     2.4950     2.9830 hc         1 BID       0.039700
    114 H39         -5.8400    -1.0880     4.2340 h1         1 BID       0.070700
    115 H401        -6.3270    -1.4800     1.8140 hc         1 BID       0.041700
    116 H402        -7.7390    -1.7370     2.8590 hc         1 BID       0.041700
    117 H403        -7.6210    -0.2630     1.8780 hc         1 BID       0.041700
    118 HO8         -7.5780     1.1580     3.9260 ho         1 BID       0.437000
@<TRIPOS>BOND
     1     1     2 2   
     2     2     3 1   
     3     2    25 1   
     4     3     4 1   
     5     3     5 1   
     6     3    51 1   
     7     4    52 1   
     8     4    53 1   
     9     4    54 1   
    10     5     6 1   
    11     5     7 1   
    12     5    55 1   
    13     6    56 1   
    14     7     8 1   
    15     7    57 1   
    16     7    58 1   
    17     8     9 1   
    18     8    59 1   
    19     9    10 2   
    20     9    11 1   
    21    11    12 1   
    22    11    60 1   
    23    11    61 1   
    24    12    13 1   
    25    12    17 1   
    26    12    62 1   
    27    13    14 1   
    28    13    15 1   
    29    13    63 1   
    30    14    64 1   
    31    14    65 1   
    32    14    66 1   
    33    15    16 1   
    34    15    67 1   
    35    15    68 1   
    36    16    18 1   
    37    16    69 1   
    38    16    70 1   
    39    17    18 1   
    40    18    19 1   
    41    18    71 1   
    42    19    20 1   
    43    19    72 1   
    44    19    73 1   
    45    20    21 2   
    46    20    22 1   
    47    22    23 2   
    48    22    74 1   
    49    23    24 1   
    50    23    75 1   
    51    24    76 1   
    52    24    77 1   
    53    24    78 1   
    54    25    26 1   
    55    25    79 1   
    56    26    27 1   
    57    26    80 1   
    58    26    81 1   
    59    27    28 1   
    60    27    82 1   
    61    27    83 1   
    62    28    29 1   
    63    28    84 1   
    64    28    85 1   
    65    29    30 1   
    66    29    35 1   
    67    29    86 1   
    68    30    31 1   
    69    30    32 1   
    70    30    87 1   
    71    31    88 1   
    72    31    89 1   
    73    31    90 1   
    74    32    33 1   
    75    32    91 1   
    76    32    92 1   
    77    33    34 1   
    78    33    93 1   
    79    33    94 1   
    80    34    35 1   
    81    34    36 1   
    82    34    40 1   
    83    36    37 1   
    84    36    95 1   
    85    36    96 1   
    86    37    38 1   
    87    37    97 1   
    88    37    98 1   
    89    38    39 1   
    90    38    99 1   
    91    38   100 1   
    92    39    40 1   
    93    39    41 1   
    94    39   101 1   
    95    41    42 1   
    96    41   102 1   
    97    41   103 1   
    98    42    43 1   
    99    42   104 1   
   100    42   105 1   
   101    43    44 1   
   102    43    45 1   
   103    43   106 1   
   104    44   107 1   
   105    44   108 1   
   106    44   109 1   
   107    45    46 2   
   108    45   110 1   
   109    46    47 1   
   110    46    48 1   
   111    47   111 1   
   112    47   112 1   
   113    47   113 1   
   114    48    49 1   
   115    48    50 1   
   116    48   114 1   
   117    49   115 1   
   118    49   116 1   
   119    49   117 1   
   120    50   118 1   
@<TRIPOS>SUBSTRUCTURE
     1 BID         1 TEMP              0 ****  ****    0 ROOT
