@<TRIPOS>MOLECULE
BIE
   28    29     1     0     0
SMALL
No Charge or Current Charge


@<TRIPOS>ATOM
      1 O5          -1.1180     1.5970     2.1590 o          1 BIE      -0.494100
      2 C7          -0.9240     1.0720     1.0680 c          1 BIE       0.608300
      3 C4           0.4860     0.8740     0.5570 ca         1 BIE      -0.104600
      4 C5           1.3490     1.9900     0.5260 ca         1 BIE      -0.078000
      5 C6           2.6630     1.8700     0.0430 ca         1 BIE      -0.137000
      6 C3           0.9700    -0.3930     0.1160 ca         1 BIE      -0.167200
      7 N1           0.1240    -1.6140     0.2030 no         1 BIE       0.703200
      8 O4          -0.1180    -2.2310    -0.8420 o          1 BIE      -0.381000
      9 O3          -0.3930    -1.8770     1.2970 o          1 BIE      -0.381000
     10 C2           2.2930    -0.5040    -0.3610 ca         1 BIE       0.179100
     11 O2           2.8070    -1.7040    -0.7600 oh         1 BIE      -0.495100
     12 C1           3.1350     0.6260    -0.4030 ca         1 BIE       0.052100
     13 O1           4.4210     0.5030    -0.8650 oh         1 BIE      -0.551100
     14 C8          -2.0830     0.6340     0.2000 ca         1 BIE      -0.175600
     15 C9          -3.3450     0.3800     0.7800 ca         1 BIE      -0.059000
     16 C13         -1.9330     0.4930    -1.2000 ca         1 BIE      -0.059000
     17 C12         -3.0190     0.0880    -1.9940 ca         1 BIE      -0.119000
     18 C11         -4.2670    -0.1730    -1.4050 ca         1 BIE      -0.079000
     19 C10         -4.4290    -0.0250    -0.0180 ca         1 BIE      -0.119000
     20 H5           0.9940     2.9610     0.8680 ha         1 BIE       0.141000
     21 H6           3.3070     2.7470     0.0220 ha         1 BIE       0.127000
     22 H2           3.7330    -1.5170    -1.0350 ho         1 BIE       0.498000
     23 H1           4.8640     1.3800    -0.8220 ho         1 BIE       0.488000
     24 H9          -3.4890     0.4880     1.8540 ha         1 BIE       0.124000
     25 H13         -0.9800     0.7020    -1.6810 ha         1 BIE       0.124000
     26 H12         -2.8940    -0.0200    -3.0690 ha         1 BIE       0.119000
     27 H11         -5.1060    -0.4870    -2.0220 ha         1 BIE       0.116000
     28 H10         -5.3960    -0.2230     0.4390 ha         1 BIE       0.119000
@<TRIPOS>BOND
     1     1     2 2   
     2     2     3 1   
     3     2    14 1   
     4     3     4 ar  
     5     3     6 ar  
     6     4     5 ar  
     7     4    20 1   
     8     5    12 ar  
     9     5    21 1   
    10     6     7 1   
    11     6    10 ar  
    12     7     8 1   
    13     7     9 1   
    14    10    11 1   
    15    10    12 ar  
    16    11    22 1   
    17    12    13 1   
    18    13    23 1   
    19    14    15 ar  
    20    14    16 ar  
    21    15    19 ar  
    22    15    24 1   
    23    16    17 ar  
    24    16    25 1   
    25    17    18 ar  
    26    17    26 1   
    27    18    19 ar  
    28    18    27 1   
    29    19    28 1   
@<TRIPOS>SUBSTRUCTURE
     1 BIE         1 TEMP              0 ****  ****    0 ROOT
