@<TRIPOS>MOLECULE
BIE
   28    29     1     0     0
SMALL
abcg2


@<TRIPOS>ATOM
      1 O5          -1.1310     1.5550     2.1640 o          1 BIE      -0.494100
      2 C7          -0.9340     1.0190     1.0970 c          1 BIE       0.608300
      3 C4           0.4650     0.8500     0.5940 ca         1 BIE      -0.104600
      4 C5           1.2830     1.9600     0.5410 ca         1 BIE      -0.078000
      5 C6           2.5700     1.8690     0.0210 ca         1 BIE      -0.137000
      6 C3           0.9690    -0.3700     0.1270 ca         1 BIE      -0.167200
      7 N1           0.1430    -1.5530     0.2570 no         1 BIE       0.703200
      8 O4           0.1180    -2.3420    -0.6540 o          1 BIE      -0.381000
      9 O3          -0.4890    -1.6680     1.2830 o          1 BIE      -0.381000
     10 C2           2.2500    -0.4940    -0.3910 ca         1 BIE       0.179100
     11 O2           2.7240    -1.6760    -0.7850 oh         1 BIE      -0.495100
     12 C1           3.0540     0.6630    -0.4410 ca         1 BIE       0.052100
     13 O1           4.2810     0.4710    -0.9470 oh         1 BIE      -0.551100
     14 C8          -2.0490     0.5970     0.2130 ca         1 BIE      -0.175600
     15 C9          -3.3010     0.3340     0.7700 ca         1 BIE      -0.059000
     16 C13         -1.8780     0.5060    -1.1680 ca         1 BIE      -0.059000
     17 C12         -2.9460     0.1540    -1.9810 ca         1 BIE      -0.119000
     18 C11         -4.1830    -0.1240    -1.4190 ca         1 BIE      -0.079000
     19 C10         -4.3590    -0.0360    -0.0410 ca         1 BIE      -0.119000
     20 H5           0.9120     2.9200     0.8740 ha         1 BIE       0.141000
     21 H6           3.1950     2.7520    -0.0240 ha         1 BIE       0.127000
     22 H2           3.6620    -1.6050    -1.0080 ho         1 BIE       0.498000
     23 H1           4.8030     1.2820    -0.9390 ho         1 BIE       0.488000
     24 H9          -3.4390     0.4000     1.8410 ha         1 BIE       0.124000
     25 H13         -0.9220     0.7390    -1.6210 ha         1 BIE       0.124000
     26 H12         -2.8100     0.0990    -3.0530 ha         1 BIE       0.119000
     27 H11         -5.0140    -0.4070    -2.0520 ha         1 BIE       0.116000
     28 H10         -5.3230    -0.2570     0.3960 ha         1 BIE       0.119000
@<TRIPOS>BOND
     1     1     2 2   
     2     2     3 1   
     3     2    14 1   
     4     3     4 ar  
     5     3     6 ar  
     6     4     5 ar  
     7     4    20 1   
     8     5    12 ar  
     9     5    21 1   
    10     6     7 1   
    11     6    10 ar  
    12     7     8 1   
    13     7     9 1   
    14    10    11 1   
    15    10    12 ar  
    16    11    22 1   
    17    12    13 1   
    18    13    23 1   
    19    14    15 ar  
    20    14    16 ar  
    21    15    19 ar  
    22    15    24 1   
    23    16    17 ar  
    24    16    25 1   
    25    17    18 ar  
    26    17    26 1   
    27    18    19 ar  
    28    18    27 1   
    29    19    28 1   
@<TRIPOS>SUBSTRUCTURE
     1 BIE         1 TEMP              0 ****  ****    0 ROOT
