@<TRIPOS>MOLECULE
BIG
   48    50     1     0     0
SMALL
No Charge or Current Charge


@<TRIPOS>ATOM
      1 C2           4.0690    -2.2120     1.3680 ca         1 BIG       0.135900
      2 C5           4.8490    -0.2170    -0.2120 ca         1 BIG      -0.220200
      3 C4           3.5870    -0.7270    -0.2710 ca         1 BIG       0.142800
      4 C8           3.7590     0.9630    -1.8430 cc         1 BIG      -0.149100
      5 O3          -0.6870     3.0210     1.2180 oh         1 BIG      -0.642000
      6 C3          -0.7800     2.3360    -0.0370 c5         1 BIG       0.172300
      7 C12         -1.5530     0.9900     0.0950 c5         1 BIG      -0.058700
      8 C11         -3.0890     1.1360     0.0370 c3         1 BIG       0.072600
      9 S5          -3.9570    -0.4920     0.1850 ss         1 BIG      -0.443000
     10 C20         -5.7120     0.0770     0.0710 c3         1 BIG       0.066600
     11 C21         -6.6740    -1.1230     0.1660 c3         1 BIG      -0.067400
     12 C22         -8.1600    -0.7110     0.0750 c3         1 BIG      -0.074400
     13 C23         -9.1250    -1.9080     0.1700 c3         1 BIG      -0.089100
     14 C1          -0.9260     0.1820    -1.0660 c5         1 BIG       0.162800
     15 N1           0.5030     0.4140    -0.7770 n3         1 BIG      -0.687600
     16 C7           0.6150     1.8880    -0.6110 c5         1 BIG       0.124800
     17 N7           4.9800     0.8010    -1.1500 na         1 BIG      -0.203700
     18 C6           5.7440    -0.7690     0.7130 ca         1 BIG       0.386900
     19 N6           7.0240    -0.3370     0.8660 nv         1 BIG      -1.075900
     20 N3           3.1420    -1.7330     0.5000 nb         1 BIG      -0.148000
     21 C9           2.8940     0.0150    -1.2960 cd         1 BIG      -0.261000
     22 N2           5.3520    -1.7790     1.5140 nb         1 BIG      -0.270000
     23 H2           3.7540    -3.0290     2.0150 h5         1 BIG       0.045100
     24 H8           3.6120     1.7010    -2.6280 h4         1 BIG       0.212000
     25 HO3         -0.1570     3.8330     1.0600 ho         1 BIG       0.438000
     26 H3          -1.2770     2.9820    -0.7740 h1         1 BIG       0.026700
     27 H4          -1.3180     0.5080     1.0500 hc         1 BIG       0.098700
     28 H5          -3.4190     1.7870     0.8570 h1         1 BIG       0.056200
     29 H5'A        -3.3760     1.6080    -0.9110 h1         1 BIG       0.056200
     30 H20         -5.9160     0.7820     0.8870 h1         1 BIG       0.053700
     31 H20A        -5.8600     0.5970    -0.8850 h1         1 BIG       0.053700
     32 H21         -6.4440    -1.8310    -0.6400 hc         1 BIG       0.053200
     33 H21A        -6.5000    -1.6470     1.1140 hc         1 BIG       0.053200
     34 H22         -8.3900    -0.0020     0.8810 hc         1 BIG       0.037200
     35 H22A        -8.3340    -0.1860    -0.8720 hc         1 BIG       0.037200
     36 H23        -10.1650    -1.5670     0.1010 hc         1 BIG       0.033367
     37 H23A        -8.9430    -2.6190    -0.6450 hc         1 BIG       0.033367
     38 H23B        -9.0000    -2.4340     1.1240 hc         1 BIG       0.033367
     39 H1          -1.1910    -0.8830    -1.0210 h1         1 BIG       0.044700
     40 H1'A        -1.2190     0.5760    -2.0500 h1         1 BIG       0.044700
     41 H6           0.7970     2.3820    -1.5760 h1         1 BIG       0.035700
     42 H2'A         1.4460     2.1500     0.0580 h1         1 BIG       0.035700
     43 H10          1.2810    -1.2920    -1.7590 h1         1 BIG       0.038200
     44 H10A         1.3170     0.1900    -2.7220 h1         1 BIG       0.038200
     45 HN7          5.8260     1.3390    -1.3210 hn         1 BIG       0.349000
     46 HN6          7.2820     0.5730     0.4920 hn         1 BIG       0.483000
     47 HN6A         7.5470    -0.6560     1.6790 hn         1 BIG       0.483000
     48 C10          1.4620    -0.2100    -1.7090 c3         1 BIG       0.252000
@<TRIPOS>BOND
     1     1    20 ar  
     2     1    22 ar  
     3     1    23 1   
     4     2     3 ar  
     5     2    17 1   
     6     2    18 ar  
     7     3    20 ar  
     8     3    21 1   
     9     4    17 1   
    10     4    21 2   
    11     4    24 1   
    12     5     6 1   
    13     5    25 1   
    14     6     7 1   
    15     6    16 1   
    16     6    26 1   
    17     7     8 1   
    18     7    14 1   
    19     7    27 1   
    20     8     9 1   
    21     8    28 1   
    22     8    29 1   
    23     9    10 1   
    24    10    11 1   
    25    10    30 1   
    26    10    31 1   
    27    11    12 1   
    28    11    32 1   
    29    11    33 1   
    30    12    13 1   
    31    12    34 1   
    32    12    35 1   
    33    13    36 1   
    34    13    37 1   
    35    13    38 1   
    36    14    15 1   
    37    14    39 1   
    38    14    40 1   
    39    15    16 1   
    40    15    48 1   
    41    16    41 1   
    42    16    42 1   
    43    17    45 1   
    44    18    19 1   
    45    18    22 ar  
    46    19    46 1   
    47    19    47 1   
    48    21    48 1   
    49    43    48 1   
    50    44    48 1   
@<TRIPOS>SUBSTRUCTURE
     1 BIG         1 TEMP              0 ****  ****    0 ROOT
