@<TRIPOS>MOLECULE
BIG
   48    50     1     0     0
SMALL
bcc


@<TRIPOS>ATOM
      1 C2           4.5920    -1.5840     1.5450 ca         1 BIG       0.661900
      2 C5           4.8460    -0.0040    -0.5430 ca         1 BIG      -0.350800
      3 C4           3.6260    -0.6040    -0.2100 ca         1 BIG       0.471100
      4 C8           3.3590     0.6120    -2.0590 cc         1 BIG      -0.099100
      5 O3          -0.2390     2.1790     1.9830 oh         1 BIG      -0.579800
      6 C3          -0.6900     1.9250     0.6700 c5         1 BIG       0.149100
      7 C12         -1.6140     0.6880     0.7030 c5         1 BIG      -0.058700
      8 C11         -3.0500     1.0210     0.3370 c3         1 BIG       0.024700
      9 S5          -4.0830    -0.4650     0.4760 ss         1 BIG      -0.347200
     10 C20         -5.6700     0.1850    -0.1200 c3         1 BIG       0.018700
     11 C21         -6.7330    -0.9020    -0.0640 c3         1 BIG      -0.067400
     12 C22         -8.0850    -0.4110    -0.5720 c3         1 BIG      -0.074400
     13 C23         -9.1540    -1.4930    -0.5180 c3         1 BIG      -0.089100
     14 C1          -0.9490    -0.3060    -0.2520 c5         1 BIG       0.162800
     15 N1           0.4490     0.0720    -0.2210 n3         1 BIG      -0.687600
     16 C7           0.4260     1.5180    -0.2950 c5         1 BIG       0.124800
     17 N7           4.6570     0.7350    -1.6750 na         1 BIG      -0.153400
     18 C6           5.9620    -0.2530     0.2710 ca         1 BIG       0.715200
     19 N6           7.1890     0.2460     0.0190 nv         1 BIG      -0.965500
     20 N3           3.4870    -1.4160     0.8570 nb         1 BIG      -0.674000
     21 C9           2.6750    -0.2020    -1.1920 cd         1 BIG      -0.261000
     22 N2           5.7990    -1.0550     1.3190 nb         1 BIG      -0.796000
     23 H2           4.5290    -2.2310     2.4140 h5         1 BIG       0.045100
     24 H8           3.0000     1.1190    -2.9410 h4         1 BIG       0.162000
     25 HO3          0.2820     2.9880     1.9700 ho         1 BIG       0.399000
     26 H3          -1.2180     2.8010     0.2740 h1         1 BIG       0.026700
     27 H4          -1.5920     0.2860     1.7200 hc         1 BIG       0.098700
     28 H5          -3.4440     1.7950     0.9990 h1         1 BIG       0.056200
     29 H5'A        -3.1030     1.3970    -0.6880 h1         1 BIG       0.056200
     30 H20         -5.9620     1.0380     0.4980 h1         1 BIG       0.053700
     31 H20A        -5.5450     0.5440    -1.1440 h1         1 BIG       0.053700
     32 H21         -6.4110    -1.7600    -0.6610 hc         1 BIG       0.053200
     33 H21A        -6.8370    -1.2590     0.9650 hc         1 BIG       0.053200
     34 H22         -8.4030     0.4530     0.0200 hc         1 BIG       0.037200
     35 H22A        -7.9770    -0.0530    -1.6000 hc         1 BIG       0.037200
     36 H23        -10.1080    -1.1300    -0.9010 hc         1 BIG       0.033367
     37 H23A        -8.8660    -2.3600    -1.1140 hc         1 BIG       0.033367
     38 H23B        -9.3190    -1.8370     0.5050 hc         1 BIG       0.033367
     39 H1          -1.0840    -1.3480     0.0460 h1         1 BIG       0.044700
     40 H1'A        -1.3780    -0.1980    -1.2660 h1         1 BIG       0.044700
     41 H6           0.1730     1.8690    -1.3120 h1         1 BIG       0.035700
     42 H2'A         1.3910     1.9580    -0.0330 h1         1 BIG       0.035700
     43 H10          1.1210    -1.6510    -1.1410 h1         1 BIG       0.038200
     44 H10A         0.8440    -0.3200    -2.2600 h1         1 BIG       0.038200
     45 HN7          5.3470     1.2740    -2.1700 hn         1 BIG       0.298700
     46 HN6          7.3050     1.0320    -0.5960 hn         1 BIG       0.427800
     47 HN6A         7.8900     0.1440     0.7340 hn         1 BIG       0.427800
     48 C10          1.2320    -0.5690    -1.2570 c3         1 BIG       0.252000
@<TRIPOS>BOND
     1     1    20 ar  
     2     1    22 ar  
     3     1    23 1   
     4     2     3 ar  
     5     2    17 1   
     6     2    18 ar  
     7     3    20 ar  
     8     3    21 1   
     9     4    17 1   
    10     4    21 2   
    11     4    24 1   
    12     5     6 1   
    13     5    25 1   
    14     6     7 1   
    15     6    16 1   
    16     6    26 1   
    17     7     8 1   
    18     7    14 1   
    19     7    27 1   
    20     8     9 1   
    21     8    28 1   
    22     8    29 1   
    23     9    10 1   
    24    10    11 1   
    25    10    30 1   
    26    10    31 1   
    27    11    12 1   
    28    11    32 1   
    29    11    33 1   
    30    12    13 1   
    31    12    34 1   
    32    12    35 1   
    33    13    36 1   
    34    13    37 1   
    35    13    38 1   
    36    14    15 1   
    37    14    39 1   
    38    14    40 1   
    39    15    16 1   
    40    15    48 1   
    41    16    41 1   
    42    16    42 1   
    43    17    45 1   
    44    18    19 1   
    45    18    22 ar  
    46    19    46 1   
    47    19    47 1   
    48    21    48 1   
    49    43    48 1   
    50    44    48 1   
@<TRIPOS>SUBSTRUCTURE
     1 BIG         1 TEMP              0 ****  ****    0 ROOT
