@<TRIPOS>MOLECULE
BIH
   24    25     1     0     0
SMALL
No Charge or Current Charge


@<TRIPOS>ATOM
      1 O31          4.8840    -1.0960     0.7720 o          1 BIH      -0.707367
      2 S3           4.3750     0.0980     0.0780 s6         1 BIH       1.274600
      3 O32          4.4720     1.3690     0.8120 o          1 BIH      -0.707367
      4 O3           4.6690     0.1710    -1.3610 o          1 BIH      -0.707367
      5 C2           2.5450    -0.2060     0.0570 ca         1 BIH      -0.234500
      6 C1           2.0350    -1.5220     0.0310 ca         1 BIH      -0.039000
      7 C            0.6480    -1.7490     0.0050 ca         1 BIH      -0.137000
      8 C8A         -0.2480    -0.6640     0.0000 ca         1 BIH      -0.040500
      9 C5          -1.6390    -0.8890    -0.0260 ca         1 BIH      -0.025000
     10 C4A          0.2520     0.6550     0.0190 ca         1 BIH      -0.040500
     11 C4           1.6430     0.8800     0.0440 ca         1 BIH      -0.025000
     12 C9          -0.6430     1.7390     0.0130 ca         1 BIH      -0.137000
     13 C8          -2.0310     1.5130    -0.0120 ca         1 BIH      -0.039000
     14 C7          -2.5410     0.1970    -0.0380 ca         1 BIH      -0.234500
     15 S6          -4.3710    -0.1070    -0.0590 s6         1 BIH       1.274600
     16 O6          -4.6650    -0.1800     1.3800 o          1 BIH      -0.707367
     17 O61         -4.8800     1.0860    -0.7530 o          1 BIH      -0.707367
     18 O1          -4.4680    -1.3780    -0.7940 o          1 BIH      -0.707367
     19 H1           2.7120    -2.3740     0.0280 ha         1 BIH       0.109500
     20 H            0.2730    -2.7690    -0.0120 ha         1 BIH       0.090000
     21 H5          -2.0160    -1.9090    -0.0340 ha         1 BIH       0.124000
     22 H4           2.0200     1.9000     0.0530 ha         1 BIH       0.124000
     23 H9          -0.2680     2.7600     0.0310 ha         1 BIH       0.090000
     24 H8          -2.7080     2.3640    -0.0090 ha         1 BIH       0.109500
@<TRIPOS>BOND
     1     1     2 1   
     2     2     3 1   
     3     2     4 1   
     4     2     5 1   
     5     5     6 ar  
     6     5    11 ar  
     7     6     7 ar  
     8     6    19 1   
     9     7     8 ar  
    10     7    20 1   
    11     8     9 ar  
    12     8    10 ar  
    13     9    14 ar  
    14     9    21 1   
    15    10    11 ar  
    16    10    12 ar  
    17    11    22 1   
    18    12    13 ar  
    19    12    23 1   
    20    13    14 ar  
    21    13    24 1   
    22    14    15 1   
    23    15    16 1   
    24    15    17 1   
    25    15    18 1   
@<TRIPOS>SUBSTRUCTURE
     1 BIH         1 TEMP              0 ****  ****    0 ROOT
