@<TRIPOS>MOLECULE
BIH
   24    25     1     0     0
SMALL
bcc


@<TRIPOS>ATOM
      1 O31          4.7660    -0.7880     1.1620 o          1 BIH      -0.707367
      2 S3           4.2810     0.0800     0.0760 s6         1 BIH       1.274600
      3 O32          4.4850     1.5160     0.3320 o          1 BIH      -0.707367
      4 O3           4.7400    -0.3500    -1.2560 o          1 BIH      -0.707367
      5 C2           2.5100    -0.1730     0.0430 ca         1 BIH      -0.234500
      6 C1           2.0300    -1.4930    -0.1110 ca         1 BIH      -0.057000
      7 C            0.6860    -1.7300    -0.1640 ca         1 BIH      -0.155000
      8 C8A         -0.2420    -0.6650    -0.0680 ca         1 BIH      -0.040500
      9 C5          -1.6380    -0.8860    -0.1210 ca         1 BIH      -0.043000
     10 C4A          0.2460     0.6560     0.0870 ca         1 BIH      -0.040500
     11 C4           1.6420     0.8770     0.1400 ca         1 BIH      -0.043000
     12 C9          -0.6820     1.7200     0.1830 ca         1 BIH      -0.155000
     13 C8          -2.0260     1.4840     0.1300 ca         1 BIH      -0.057000
     14 C7          -2.5060     0.1640    -0.0240 ca         1 BIH      -0.234500
     15 S6          -4.2770    -0.0900    -0.0580 s6         1 BIH       1.274600
     16 O6          -4.7370     0.3450     1.2720 o          1 BIH      -0.707367
     17 O61         -4.7610     0.7750    -1.1470 o          1 BIH      -0.707367
     18 O1          -4.4800    -1.5260    -0.3090 o          1 BIH      -0.707367
     19 H1           2.7250    -2.3200    -0.1810 ha         1 BIH       0.127500
     20 H            0.3170    -2.7410    -0.2810 ha         1 BIH       0.108000
     21 H5          -2.0060    -1.8970    -0.2400 ha         1 BIH       0.142000
     22 H4           2.0100     1.8880     0.2590 ha         1 BIH       0.142000
     23 H9          -0.3130     2.7320     0.3000 ha         1 BIH       0.108000
     24 H8          -2.7210     2.3100     0.2010 ha         1 BIH       0.127500
@<TRIPOS>BOND
     1     1     2 1   
     2     2     3 1   
     3     2     4 1   
     4     2     5 1   
     5     5     6 ar  
     6     5    11 ar  
     7     6     7 ar  
     8     6    19 1   
     9     7     8 ar  
    10     7    20 1   
    11     8     9 ar  
    12     8    10 ar  
    13     9    14 ar  
    14     9    21 1   
    15    10    11 ar  
    16    10    12 ar  
    17    11    22 1   
    18    12    13 ar  
    19    12    23 1   
    20    13    14 ar  
    21    13    24 1   
    22    14    15 1   
    23    15    16 1   
    24    15    17 1   
    25    15    18 1   
@<TRIPOS>SUBSTRUCTURE
     1 BIH         1 TEMP              0 ****  ****    0 ROOT
