@<TRIPOS>MOLECULE
BII
   69    72     1     0     0
SMALL
abcg2


@<TRIPOS>ATOM
      1 CAI         10.2240     2.6590    22.3170 c3         1 BII      -0.225000
      2 CAN         10.2600     3.0770    23.7800 c3         1 BII       0.036000
      3 CAW          9.9420     1.9130    24.7080 c3         1 BII      -0.225000
      4 NAO         11.5810     3.6550    24.0630 n7         1 BII      -0.817000
      5 SAP         11.8260     4.9710    24.9950 s6         1 BII       2.645000
      6 OAX         13.2450     5.2690    24.8940 o          1 BII      -0.893500
      7 OAJ         10.8600     5.9840    24.5800 o          1 BII      -0.893500
      8 CAQ         11.4930     4.5560    26.6970 ca         1 BII      -0.802000
      9 CAY         12.5930     4.2370    27.4880 ca         1 BII      -0.025000
     10 CBC         12.4190     3.8470    28.8020 ca         1 BII      -0.189000
     11 CAZ         11.1360     3.7990    29.3300 ca         1 BII      -0.072000
     12 CAR         10.0390     4.1350    28.5580 ca         1 BII      -0.162000
     13 CAK         10.1880     4.5080    27.2200 ca         1 BII       0.205000
     14 NAE          9.0920     4.8610    26.4420 nu         1 BII      -0.305000
     15 C4           7.8660     4.2510    26.4150 c2         1 BII       0.232000
     16 N3           7.6320     3.2140    27.1890 n2         1 BII      -0.375000
     17 C5           6.8830     4.7200    25.5340 c2         1 BII      -0.330000
     18 CL5          7.1640     6.0380    24.4420 cl         1 BII      -0.031000
     19 C6           5.6690     4.0530    25.5550 c2         1 BII       0.036000
     20 N1           5.4170     3.0290    26.3350 n2         1 BII      -0.226000
     21 C2           6.4260     2.5950    27.1490 c2         1 BII       0.210000
     22 NAH          6.1230     1.5470    27.8910 n2         1 BII      -0.313000
     23 CAM          7.0080     0.8890    28.6870 c2         1 BII       0.090000
     24 CAT          6.3700    -0.1220    29.5570 c2         1 BII       0.302000
     25 CBB          7.0660    -0.9720    30.3930 c2         1 BII      -0.432000
     26 OAU          5.0650    -0.1440    29.4710 os         1 BII      -0.092000
     27 CAV          4.3030    -1.0510    30.2590 c3         1 BII      -0.088000
     28 CAS          8.3600     0.9730    28.7960 c2         1 BII      -0.307000
     29 CBA          9.1880     0.1140    29.6770 c6         1 BII      -0.115000
     30 CBD          8.4640    -0.9110    30.4670 c2         1 BII       0.224000
     31 NBE          9.1560    -1.7390    31.2160 n3         1 BII      -0.215000
     32 CBG         10.6050    -1.6840    31.3660 c5         1 BII      -0.084000
     33 CBF          8.5680    -2.8410    31.9840 c5         1 BII      -0.037000
     34 CBH          9.7670    -3.6840    32.3810 c5         1 BII      -0.171000
     35 CBI         10.8890    -2.6600    32.5220 c5         1 BII      -0.023000
     36 NBJ         12.2130    -3.2240    32.6120 n7         1 BII      -0.286000
     37 CBK         12.7370    -3.8920    31.4380 c3         1 BII      -0.131000
     38 HAI1        10.4190     3.5080    21.6630 hc         1 BII       0.084167
     39 HAI2        10.9700     1.8880    22.1120 hc         1 BII       0.084167
     40 HAI3         9.2440     2.2520    22.0670 hc         1 BII       0.084167
     41 HAN          9.5220     3.8690    23.9180 h1         1 BII       0.121000
     42 HAW1        10.6460     1.0930    24.5510 hc         1 BII       0.084167
     43 HAW2         9.9850     2.1990    25.7570 hc         1 BII       0.084167
     44 HAW3         8.9380     1.5350    24.5110 hc         1 BII       0.084167
     45 HAO         12.3350     2.9800    24.1330 hn         1 BII       0.223000
     46 HAY         13.5910     4.2900    27.0760 ha         1 BII       0.152000
     47 HBC         13.2780     3.5960    29.4090 ha         1 BII       0.129000
     48 HAZ         10.9840     3.5150    30.3640 ha         1 BII       0.121000
     49 HAR          9.0510     4.1080    28.9890 ha         1 BII       0.165000
     50 HAE          9.2640     5.5550    25.7290 hn         1 BII       0.282000
     51 H6           4.8700     4.3840    24.8980 h4         1 BII       0.155000
     52 HAS          8.9000     1.7030    28.2170 ha         1 BII       0.187000
     53 HBB          6.5340    -1.6870    31.0010 ha         1 BII       0.146000
     54 HBD          9.9610    -0.3860    29.0780 hc         1 BII       0.120500
     55 HAV1         4.5510    -2.0870    30.0240 h1         1 BII       0.096333
     56 HAV2         4.4520    -0.8740    31.3250 h1         1 BII       0.096333
     57 HAV3         3.2630    -0.8660    30.0080 h1         1 BII       0.096333
     58 HBA          9.7610     0.7470    30.3680 hc         1 BII       0.120500
     59 HBG1        11.0860    -1.9920    30.4330 h1         1 BII       0.107500
     60 HBG2        10.9370    -0.6700    31.5960 h1         1 BII       0.107500
     61 HBF1         8.0410    -2.4450    32.8560 h1         1 BII       0.108500
     62 HBF2         7.8520    -3.3890    31.3720 h1         1 BII       0.108500
     63 HBI         10.7250    -2.1110    33.4550 h1         1 BII       0.110000
     64 HBH1         9.5910    -4.2360    33.3030 hc         1 BII       0.114000
     65 HBH2         9.9900    -4.4040    31.5910 hc         1 BII       0.114000
     66 HBJ         12.8610    -2.5100    32.9150 hn         1 BII       0.169000
     67 HBK1        12.8020    -3.2700    30.5360 h1         1 BII       0.076000
     68 HBK2        13.7420    -4.2490    31.6590 h1         1 BII       0.076000
     69 HBK3        12.1360    -4.7670    31.1880 h1         1 BII       0.076000
@<TRIPOS>BOND
     1     1     2 1   
     2     1    38 1   
     3     1    39 1   
     4     1    40 1   
     5     2     3 1   
     6     2     4 1   
     7     2    41 1   
     8     3    42 1   
     9     3    43 1   
    10     3    44 1   
    11     4     5 1   
    12     4    45 1   
    13     5     6 1   
    14     5     7 1   
    15     5     8 1   
    16     8     9 1   
    17     8    13 1   
    18     9    10 1   
    19     9    46 1   
    20    10    11 1   
    21    10    47 1   
    22    11    12 1   
    23    11    48 1   
    24    12    13 1   
    25    12    49 1   
    26    13    14 1   
    27    14    15 1   
    28    14    50 1   
    29    15    16 1   
    30    15    17 1   
    31    16    21 1   
    32    17    18 1   
    33    17    19 1   
    34    19    20 1   
    35    19    51 1   
    36    20    21 1   
    37    21    22 1   
    38    22    23 1   
    39    23    24 1   
    40    23    28 1   
    41    24    25 1   
    42    24    26 1   
    43    25    30 1   
    44    25    53 1   
    45    26    27 1   
    46    27    55 1   
    47    27    56 1   
    48    27    57 1   
    49    28    29 1   
    50    28    52 1   
    51    29    30 1   
    52    29    54 1   
    53    29    58 1   
    54    30    31 1   
    55    31    32 1   
    56    31    33 1   
    57    32    35 1   
    58    32    59 1   
    59    32    60 1   
    60    33    34 1   
    61    33    61 1   
    62    33    62 1   
    63    34    35 1   
    64    34    64 1   
    65    34    65 1   
    66    35    36 1   
    67    35    63 1   
    68    36    37 1   
    69    36    66 1   
    70    37    67 1   
    71    37    68 1   
    72    37    69 1   
@<TRIPOS>SUBSTRUCTURE
     1 BII         1 TEMP              0 ****  ****    0 ROOT
