@<TRIPOS>MOLECULE
BII
   69    72     1     0     0
SMALL
No Charge or Current Charge


@<TRIPOS>ATOM
      1 CAI         10.3100     3.0290    22.0300 c3         1 BII      -0.225000
      2 CAN          9.7250     3.0050    23.4540 c3         1 BII       0.036000
      3 CAW          8.7520     1.8300    23.6330 c3         1 BII      -0.225000
      4 NAO         10.8040     2.8250    24.4440 n7         1 BII      -0.817000
      5 SAP         11.8160     4.0860    24.9210 s6         1 BII       2.645000
      6 OAX         13.2130     3.7890    24.5410 o          1 BII      -0.893500
      7 OAJ         11.1450     5.3700    24.6400 o          1 BII      -0.893500
      8 CAQ         11.6960     3.8850    26.7650 ca         1 BII      -0.802000
      9 CAY         12.7970     3.3530    27.4910 ca         1 BII      -0.025000
     10 CBC         12.7030     3.1530    28.8760 ca         1 BII      -0.189000
     11 CAZ         11.5220     3.4700    29.5580 ca         1 BII      -0.072000
     12 CAR         10.4320     3.9930    28.8460 ca         1 BII      -0.162000
     13 CAK         10.5030     4.2020    27.4560 ca         1 BII       0.205000
     14 NAE          9.3800     4.7270    26.8070 nu         1 BII      -0.305000
     15 C4           8.0970     4.2070    26.6770 c2         1 BII       0.232000
     16 N3           7.7840     3.1580    27.3640 n2         1 BII      -0.375000
     17 C5           7.2100     4.7620    25.8280 c2         1 BII      -0.330000
     18 Cl5          7.5750     6.1760    24.8660 cl         1 BII      -0.031000
     19 C6           6.0040     4.1730    25.7470 c2         1 BII       0.036000
     20 N1           5.7170     3.1220    26.4450 n2         1 BII      -0.226000
     21 C2           6.6110     2.6030    27.2370 c2         1 BII       0.210000
     22 NAH          6.2580     1.5790    27.9510 n2         1 BII      -0.313000
     23 CAM          6.9750     0.7380    28.6480 c2         1 BII       0.090000
     24 CAT          6.3720     0.0350    29.6590 c2         1 BII       0.302000
     25 CBB          7.0410    -0.8680    30.4260 c2         1 BII      -0.432000
     26 OAU          5.0250     0.2880    29.8870 os         1 BII      -0.092000
     27 CAV          4.2690    -0.3690    30.9200 c3         1 BII      -0.088000
     28 CAS          8.2870     0.4920    28.3900 c2         1 BII      -0.307000
     29 CBA          9.1380    -0.4900    29.1780 c6         1 BII      -0.115000
     30 CBD          8.3360    -1.1670    30.2710 c2         1 BII       0.224000
     31 NBE          9.0110    -2.0960    31.1260 n3         1 BII      -0.215000
     32 CBG          9.7780    -1.5240    32.2520 c5         1 BII      -0.084000
     33 CBF          9.9310    -3.0800    30.5240 c5         1 BII      -0.037000
     34 CBH         10.3280    -3.8900    31.7840 c5         1 BII      -0.171000
     35 CBI         10.4680    -2.7800    32.8780 c5         1 BII      -0.023000
     36 NBJ         11.9030    -2.4890    33.1740 n7         1 BII      -0.286000
     37 CBK         12.8350    -2.1620    32.0730 c3         1 BII      -0.131000
     38 HAI1        10.9450     3.9070    21.8660 hc         1 BII       0.084167
     39 HAI2        10.9050     2.1280    21.8330 hc         1 BII       0.084167
     40 HAI3         9.5030     3.0670    21.2860 hc         1 BII       0.084167
     41 HAN          9.1580     3.9360    23.6300 h1         1 BII       0.121000
     42 HAW1         9.2570     0.8700    23.4690 hc         1 BII       0.084167
     43 HAW2         8.3290     1.8260    24.6450 hc         1 BII       0.084167
     44 HAW3         7.9190     1.9050    22.9240 hc         1 BII       0.084167
     45 HAO         10.4010     2.5940    25.3460 hn         1 BII       0.223000
     46 HAY         13.7320     3.0840    26.9910 ha         1 BII       0.152000
     47 HBC         13.5500     2.7450    29.4230 ha         1 BII       0.129000
     48 HAZ         11.4490     3.3120    30.6320 ha         1 BII       0.121000
     49 HAR          9.5170     4.2370    29.3790 ha         1 BII       0.165000
     50 HAE          9.5940     5.4440    26.1210 hn         1 BII       0.282000
     51 H6           5.2400     4.5760    25.0820 h4         1 BII       0.155000
     52 HAS          8.8130     0.9620    27.5610 ha         1 BII       0.187000
     53 HBB          6.5300    -1.3930    31.2280 ha         1 BII       0.146000
     54 HBD          9.5460    -1.2440    28.4920 hc         1 BII       0.120500
     55 HAV1         4.2550    -1.4550    30.7640 h1         1 BII       0.096333
     56 HAV2         4.6920    -0.1560    31.9100 h1         1 BII       0.096333
     57 HAV3         3.2310    -0.0140    30.9130 h1         1 BII       0.096333
     58 HBA          9.9960     0.0340    29.6210 hc         1 BII       0.120500
     59 HBG1        10.4990    -0.7780    31.8930 h1         1 BII       0.107500
     60 HBG2         9.1200    -1.0180    32.9720 h1         1 BII       0.107500
     61 HBF1         9.4370    -3.7040    29.7660 h1         1 BII       0.108500
     62 HBF2        10.8010    -2.5960    30.0580 h1         1 BII       0.108500
     63 HBI          9.9540    -3.0890    33.8010 h1         1 BII       0.110000
     64 HBH1         9.5270    -4.5880    32.0540 hc         1 BII       0.114000
     65 HBH2        11.2290    -4.4980    31.6420 hc         1 BII       0.114000
     66 HBJ         11.9620    -1.7580    33.8860 hn         1 BII       0.169000
     67 HBK1        12.5600    -1.2240    31.5750 h1         1 BII       0.076000
     68 HBK2        13.8520    -2.0410    32.4660 h1         1 BII       0.076000
     69 HBK3        12.8670    -2.9570    31.3180 h1         1 BII       0.076000
@<TRIPOS>BOND
     1     1     2 1   
     2     1    38 1   
     3     1    39 1   
     4     1    40 1   
     5     2     3 1   
     6     2     4 1   
     7     2    41 1   
     8     3    42 1   
     9     3    43 1   
    10     3    44 1   
    11     4     5 1   
    12     4    45 1   
    13     5     6 1   
    14     5     7 1   
    15     5     8 1   
    16     8     9 ar  
    17     8    13 ar  
    18     9    10 ar  
    19     9    46 1   
    20    10    11 ar  
    21    10    47 1   
    22    11    12 ar  
    23    11    48 1   
    24    12    13 ar  
    25    12    49 1   
    26    13    14 1   
    27    14    15 1   
    28    14    50 1   
    29    15    16 1   
    30    15    17 1   
    31    16    21 1   
    32    17    18 1   
    33    17    19 1   
    34    19    20 1   
    35    19    51 1   
    36    20    21 1   
    37    21    22 1   
    38    22    23 1   
    39    23    24 1   
    40    23    28 1   
    41    24    25 1   
    42    24    26 1   
    43    25    30 1   
    44    25    53 1   
    45    26    27 1   
    46    27    55 1   
    47    27    56 1   
    48    27    57 1   
    49    28    29 1   
    50    28    52 1   
    51    29    30 1   
    52    29    54 1   
    53    29    58 1   
    54    30    31 1   
    55    31    32 1   
    56    31    33 1   
    57    32    35 1   
    58    32    59 1   
    59    32    60 1   
    60    33    34 1   
    61    33    61 1   
    62    33    62 1   
    63    34    35 1   
    64    34    64 1   
    65    34    65 1   
    66    35    36 1   
    67    35    63 1   
    68    36    37 1   
    69    36    66 1   
    70    37    67 1   
    71    37    68 1   
    72    37    69 1   
@<TRIPOS>SUBSTRUCTURE
     1 BII         1 TEMP              0 ****  ****    0 ROOT
