@<TRIPOS>MOLECULE
BIJ
   63    67     1     0     0
SMALL
No Charge or Current Charge


@<TRIPOS>ATOM
      1 CBD         28.8640    20.2310    31.4710 c6         1 BIJ       0.201800
      2 CBF         27.6090    20.2760    30.5390 c6         1 BIJ       0.155300
      3 NBH         26.4440    19.5230    31.0960 n3         1 BIJ      -0.711600
      4 CBI         25.2730    19.5330    30.1930 c3         1 BIJ       0.151100
      5 CBG         26.1210    20.0290    32.4650 c6         1 BIJ       0.155300
      6 CBE         27.3460    19.9780    33.4360 c6         1 BIJ       0.201800
      7 NBC         28.5530    20.6600    32.8710 nh         1 BIJ      -0.793400
      8 CBA         29.5730    21.1520    33.7090 ca         1 BIJ       0.345000
      9 CAW         30.3150    22.2710    33.3040 ca         1 BIJ      -0.258000
     10 CAQ         31.3140    22.8110    34.1420 ca         1 BIJ       0.196100
     11 OAR         32.0360    23.9370    33.7780 os         1 BIJ      -0.311100
     12 CAS         31.8090    24.6350    32.5420 c3         1 BIJ       0.143900
     13 CAV         29.8460    20.5560    34.9530 ca         1 BIJ      -0.219000
     14 CAP         30.8400    21.0830    35.7940 ca         1 BIJ      -0.043000
     15 CAL         31.5730    22.2160    35.4020 ca         1 BIJ       0.071400
     16 NAH         32.4980    22.7870    36.3110 ne         1 BIJ      -0.487100
     17 C2          32.1970    23.8230    37.0310 cf         1 BIJ       0.805300
     18 N3          30.8810    24.2620    37.0810 nf         1 BIJ      -0.801000
     19 N1          33.2010    24.4560    37.7560 nf         1 BIJ      -0.603000
     20 C6          32.9770    25.6530    38.2240 c2         1 BIJ       0.430200
     21 C5          31.6890    26.3930    37.9710 c6         1 BIJ      -0.072300
     22 Cl5         31.1510    27.3110    39.5000 cl         1 BIJ      -0.228000
     23 C4          30.6180    25.4590    37.4660 c2         1 BIJ       0.683200
     24 NAE         29.3320    25.9270    37.4080 nu         1 BIJ      -0.890200
     25 CAJ         28.1780    25.3070    36.9400 ca         1 BIJ       0.376000
     26 CAN         26.9810    25.4250    37.6480 ca         1 BIJ      -0.233600
     27 CAM         26.7150    26.1530    38.8910 c          1 BIJ       0.588600
     28 OAI         27.5130    26.8230    39.5330 o          1 BIJ      -0.585000
     29 NAU         25.3630    25.9500    39.1920 n          1 BIJ      -0.405800
     30 CAT         24.7450    26.5490    40.3870 c3         1 BIJ       0.097300
     31 CAX         24.6530    25.0980    38.1890 c5         1 BIJ       0.139300
     32 CAY         25.8060    24.8220    37.2310 ca         1 BIJ      -0.053300
     33 CBB         25.7800    24.0660    36.0500 ca         1 BIJ      -0.132000
     34 CAZ         26.9660    23.9440    35.2980 ca         1 BIJ      -0.059000
     35 CAO         28.1540    24.5690    35.7390 ca         1 BIJ      -0.142000
     36 HBD1        29.2580    19.2040    31.4810 h1         1 BIJ       0.045450
     37 HBD2        29.6440    20.8690    31.0310 h1         1 BIJ       0.045450
     38 HBF1        27.3340    21.3290    30.3810 h1         1 BIJ       0.039700
     39 HBF2        27.8900    19.8700    29.5560 h1         1 BIJ       0.039700
     40 HBI1        24.4550    18.9330    30.6120 h1         1 BIJ       0.031700
     41 HBI2        24.9050    20.5570    30.0400 h1         1 BIJ       0.031700
     42 HBI3        25.5350    19.1120    29.2130 h1         1 BIJ       0.031700
     43 HBG1        25.7710    21.0700    32.4060 h1         1 BIJ       0.039700
     44 HBG2        25.3020    19.4420    32.9050 h1         1 BIJ       0.039700
     45 HBE1        27.0520    20.4490    34.3860 h1         1 BIJ       0.045450
     46 HBE2        27.5810    18.9250    33.6510 h1         1 BIJ       0.045450
     47 HAW         30.0820    22.7250    32.3490 ha         1 BIJ       0.119000
     48 HAV         29.2880    19.6840    35.2790 ha         1 BIJ       0.114000
     49 HAS1        30.7780    25.0080    32.4890 h1         1 BIJ       0.039367
     50 HAS2        32.4860    25.4940    32.4610 h1         1 BIJ       0.039367
     51 HAS3        31.9910    23.9760    31.6830 h1         1 BIJ       0.039367
     52 HAP         31.0260    20.6260    36.7630 ha         1 BIJ       0.125000
     53 H6          33.7450    26.1670    38.7970 h4         1 BIJ       0.045800
     54 H5          31.8650    27.1690    37.2160 h1         1 BIJ       0.110700
     55 HX2         23.8350    25.6390    37.6960 h1         1 BIJ       0.064200
     56 HAE         29.1390    26.5870    38.1620 hn         1 BIJ       0.542000
     57 HAO         29.0580    24.4750    35.1460 ha         1 BIJ       0.165000
     58 HAT1        24.8190    27.6430    40.3330 h1         1 BIJ       0.046033
     59 HAT2        23.6870    26.2630    40.4440 h1         1 BIJ       0.046033
     60 HAT3        25.2610    26.1960    41.2880 h1         1 BIJ       0.046033
     61 HAX         24.2650    24.1740    38.6360 h1         1 BIJ       0.064200
     62 HBB         24.8610    23.5880    35.7160 ha         1 BIJ       0.122000
     63 HAZ         26.9680    23.3680    34.3740 ha         1 BIJ       0.119000
@<TRIPOS>BOND
     1     1     2 1   
     2     1     7 1   
     3     1    36 1   
     4     1    37 1   
     5     2     3 1   
     6     2    38 1   
     7     2    39 1   
     8     3     4 1   
     9     3     5 1   
    10     4    40 1   
    11     4    41 1   
    12     4    42 1   
    13     5     6 1   
    14     5    43 1   
    15     5    44 1   
    16     6     7 1   
    17     6    45 1   
    18     6    46 1   
    19     7     8 1   
    20     8     9 ar  
    21     8    13 ar  
    22     9    10 ar  
    23     9    47 1   
    24    10    11 1   
    25    10    15 ar  
    26    11    12 1   
    27    12    49 1   
    28    12    50 1   
    29    12    51 1   
    30    13    14 ar  
    31    13    48 1   
    32    14    15 ar  
    33    14    52 1   
    34    15    16 1   
    35    16    17 2   
    36    17    18 1   
    37    17    19 1   
    38    18    23 2   
    39    19    20 2   
    40    20    21 1   
    41    20    53 1   
    42    21    22 1   
    43    21    23 1   
    44    21    54 1   
    45    23    24 1   
    46    24    25 1   
    47    24    56 1   
    48    25    26 ar  
    49    25    35 ar  
    50    26    27 1   
    51    26    32 ar  
    52    27    28 2   
    53    27    29 1   
    54    29    30 1   
    55    29    31 1   
    56    30    58 1   
    57    30    59 1   
    58    30    60 1   
    59    31    32 1   
    60    31    55 1   
    61    31    61 1   
    62    32    33 ar  
    63    33    34 ar  
    64    33    62 1   
    65    34    35 ar  
    66    34    63 1   
    67    35    57 1   
@<TRIPOS>SUBSTRUCTURE
     1 BIJ         1 TEMP              0 ****  ****    0 ROOT
