@<TRIPOS>MOLECULE
BIJ
   63    67     1     0     0
SMALL
abcg2


@<TRIPOS>ATOM
      1 CBD         29.1130    20.0090    31.1340 c6         1 BIJ       0.201800
      2 CBF         28.0310    19.6470    30.1370 c6         1 BIJ       0.155300
      3 NBH         26.9630    18.9130    30.7820 n3         1 BIJ      -0.711600
      4 CBI         25.9580    18.4880    29.8350 c3         1 BIJ       0.151100
      5 CBG         26.3960    19.7180    31.8410 c6         1 BIJ       0.155300
      6 CBE         27.4460    20.0880    32.8730 c6         1 BIJ       0.201800
      7 NBC         28.5630    20.7680    32.2490 nh         1 BIJ      -0.793400
      8 CBA         29.4430    21.4700    33.0640 ca         1 BIJ       0.345000
      9 CAW         30.4930    22.2100    32.4930 ca         1 BIJ      -0.258000
     10 CAQ         31.3660    22.9500    33.2730 ca         1 BIJ       0.196100
     11 OAR         32.3790    23.6750    32.7700 os         1 BIJ      -0.311100
     12 CAS         32.6210    23.6330    31.3790 c3         1 BIJ       0.143900
     13 CAV         29.3120    21.4990    34.4560 ca         1 BIJ      -0.219000
     14 CAP         30.1690    22.2680    35.2280 ca         1 BIJ      -0.043000
     15 CAL         31.2030    23.0170    34.6750 ca         1 BIJ       0.071400
     16 NAH         32.1440    23.7400    35.3910 ne         1 BIJ      -0.487100
     17 C2          31.8480    24.4520    36.4080 cf         1 BIJ       0.805300
     18 N3          30.5560    24.6680    36.8330 nf         1 BIJ      -0.801000
     19 N1          32.9480    25.0570    37.0350 nf         1 BIJ      -0.603000
     20 C6          32.7570    25.7100    38.1020 c2         1 BIJ       0.430200
     21 C5          31.4310    25.8830    38.7630 c6         1 BIJ      -0.072300
     22 CL5         31.4800    24.9780    40.3280 cl         1 BIJ      -0.228000
     23 C4          30.3300    25.3400    37.9010 c2         1 BIJ       0.683200
     24 NAE         29.0880    25.6190    38.3400 nu         1 BIJ      -0.890200
     25 CAJ         27.8550    25.2330    37.8260 ca         1 BIJ       0.376000
     26 CAN         26.7200    25.6480    38.5260 ca         1 BIJ      -0.233600
     27 CAM         26.6380    26.4550    39.7560 c          1 BIJ       0.588600
     28 OAI         27.5800    26.9120    40.3990 o          1 BIJ      -0.585000
     29 NAU         25.3280    26.5920    40.0340 n          1 BIJ      -0.405800
     30 CAT         24.7920    27.2980    41.1670 c3         1 BIJ       0.097300
     31 CAX         24.4670    25.9210    39.0840 c5         1 BIJ       0.139300
     32 CAY         25.4410    25.3210    38.1190 ca         1 BIJ      -0.053300
     33 CBB         25.2270    24.5600    36.9840 ca         1 BIJ      -0.132000
     34 CAZ         26.3520    24.1430    36.2820 ca         1 BIJ      -0.059000
     35 CAO         27.6470    24.4650    36.6780 ca         1 BIJ      -0.142000
     36 HBD1        29.5960    19.0900    31.4970 h1         1 BIJ       0.045450
     37 HBD2        29.8700    20.5890    30.6130 h1         1 BIJ       0.045450
     38 HBF1        27.6600    20.5690    29.6550 h1         1 BIJ       0.039700
     39 HBF2        28.4740    19.0280    29.3540 h1         1 BIJ       0.039700
     40 HBI1        25.1910    17.9000    30.3410 h1         1 BIJ       0.031700
     41 HBI2        25.4580    19.3280    29.3280 h1         1 BIJ       0.031700
     42 HBI3        26.4090    17.8570    29.0680 h1         1 BIJ       0.031700
     43 HBG1        25.9350    20.6420    31.4490 h1         1 BIJ       0.039700
     44 HBG2        25.6080    19.1530    32.3430 h1         1 BIJ       0.039700
     45 HBE1        26.9790    20.7490    33.6030 h1         1 BIJ       0.045450
     46 HBE2        27.7710    19.1810    33.4040 h1         1 BIJ       0.045450
     47 HAW         30.6050    22.2260    31.4180 ha         1 BIJ       0.119000
     48 HAV         28.5590    20.9150    34.9650 ha         1 BIJ       0.114000
     49 HAS1        31.7840    24.0370    30.8040 h1         1 BIJ       0.039367
     50 HAS2        33.4970    24.2530    31.2000 h1         1 BIJ       0.039367
     51 HAS3        32.8300    22.6180    31.0290 h1         1 BIJ       0.039367
     52 HAP         30.0470    22.2500    36.3020 ha         1 BIJ       0.125000
     53 H6          33.6090    26.1720    38.5940 h4         1 BIJ       0.045800
     54 H5          31.2640    26.9300    39.0190 h1         1 BIJ       0.110700
     55 HX2         23.7880    26.6280    38.5970 h1         1 BIJ       0.064200
     56 HAE         29.0140    26.1730    39.1890 hn         1 BIJ       0.542000
     57 HAO         28.4840    24.1170    36.0960 ha         1 BIJ       0.165000
     58 HAT1        25.6050    27.7320    41.7430 h1         1 BIJ       0.046033
     59 HAT2        24.1290    28.1010    40.8440 h1         1 BIJ       0.046033
     60 HAT3        24.2290    26.6220    41.8120 h1         1 BIJ       0.046033
     61 HAX         23.8530    25.1620    39.5790 h1         1 BIJ       0.064200
     62 HBB         24.2320    24.2980    36.6520 ha         1 BIJ       0.122000
     63 HAZ         26.2260    23.5440    35.3890 ha         1 BIJ       0.119000
@<TRIPOS>BOND
     1     1     2 1   
     2     1     7 1   
     3     1    36 1   
     4     1    37 1   
     5     2     3 1   
     6     2    38 1   
     7     2    39 1   
     8     3     4 1   
     9     3     5 1   
    10     4    40 1   
    11     4    41 1   
    12     4    42 1   
    13     5     6 1   
    14     5    43 1   
    15     5    44 1   
    16     6     7 1   
    17     6    45 1   
    18     6    46 1   
    19     7     8 1   
    20     8     9 ar  
    21     8    13 ar  
    22     9    10 ar  
    23     9    47 1   
    24    10    11 1   
    25    10    15 ar  
    26    11    12 1   
    27    12    49 1   
    28    12    50 1   
    29    12    51 1   
    30    13    14 ar  
    31    13    48 1   
    32    14    15 ar  
    33    14    52 1   
    34    15    16 1   
    35    16    17 2   
    36    17    18 1   
    37    17    19 1   
    38    18    23 2   
    39    19    20 2   
    40    20    21 1   
    41    20    53 1   
    42    21    22 1   
    43    21    23 1   
    44    21    54 1   
    45    23    24 1   
    46    24    25 1   
    47    24    56 1   
    48    25    26 ar  
    49    25    35 ar  
    50    26    27 1   
    51    26    32 ar  
    52    27    28 2   
    53    27    29 1   
    54    29    30 1   
    55    29    31 1   
    56    30    58 1   
    57    30    59 1   
    58    30    60 1   
    59    31    32 1   
    60    31    55 1   
    61    31    61 1   
    62    32    33 ar  
    63    33    34 ar  
    64    33    62 1   
    65    34    35 ar  
    66    34    63 1   
    67    35    57 1   
@<TRIPOS>SUBSTRUCTURE
     1 BIJ         1 TEMP              0 ****  ****    0 ROOT
