@<TRIPOS>MOLECULE
BIK
   22    23     1     0     0
SMALL
bcc


@<TRIPOS>ATOM
      1 O6          20.8550    15.9310     7.6030 oh         1 BIK      -0.516100
      2 C6          21.9220    16.2800     6.8500 ca         1 BIK       0.083100
      3 C7          23.0430    15.4180     6.9040 ca         1 BIK      -0.154000
      4 C8          24.1650    15.6930     6.1750 ca         1 BIK      -0.109000
      5 C8A         24.2420    16.8420     5.3490 ca         1 BIK      -0.009000
      6 C4A         23.1170    17.7040     5.3010 ca         1 BIK      -0.063000
      7 C5          21.9620    17.4010     6.0630 ca         1 BIK      -0.190000
      8 C4          23.1920    18.8520     4.4870 ca         1 BIK      -0.072000
      9 C1          25.3880    17.1440     4.5860 ca         1 BIK      -0.253000
     10 C2          25.4350    18.2680     3.7930 ca         1 BIK       0.216100
     11 O2          26.5230    18.5430     3.0710 oh         1 BIK      -0.586100
     12 C3          24.3080    19.1480     3.7470 ca         1 BIK      -0.226600
     13 C31         24.3540    20.3950     2.8920 c          1 BIK       0.931200
     14 O32         23.3760    21.1450     2.8680 o          1 BIK      -0.798800
     15 O31         25.4330    20.5780     2.2470 o          1 BIK      -0.798800
     16 HO6         20.1430    16.5690     7.4860 ho         1 BIK       0.411000
     17 H7          23.0010    14.5350     7.5310 ha         1 BIK       0.123000
     18 H8          25.0150    15.0240     6.2270 ha         1 BIK       0.119000
     19 H5          21.1100    18.0710     6.0140 ha         1 BIK       0.120000
     20 H4          22.3410    19.5220     4.4470 ha         1 BIK       0.142000
     21 H1          26.2450    16.4800     4.6250 ha         1 BIK       0.124000
     22 HO2         26.2850    19.4190     2.6010 ho         1 BIK       0.508000
@<TRIPOS>BOND
     1     1     2 1   
     2     1    16 1   
     3     2     3 ar  
     4     2     7 ar  
     5     3     4 ar  
     6     3    17 1   
     7     4     5 ar  
     8     4    18 1   
     9     5     6 ar  
    10     5     9 ar  
    11     6     7 ar  
    12     6     8 ar  
    13     7    19 1   
    14     8    12 ar  
    15     8    20 1   
    16     9    10 ar  
    17     9    21 1   
    18    10    11 1   
    19    10    12 ar  
    20    11    22 1   
    21    12    13 1   
    22    13    14 1   
    23    13    15 1   
@<TRIPOS>SUBSTRUCTURE
     1 BIK         1 TEMP              0 ****  ****    0 ROOT
