@<TRIPOS>MOLECULE
BIK
   22    23     1     0     0
SMALL
No Charge or Current Charge


@<TRIPOS>ATOM
      1 O6          20.8200    15.9630     7.5950 oh         1 BIK      -0.555100
      2 C6          21.9340    16.2500     6.8640 ca         1 BIK       0.083100
      3 C7          23.0420    15.3900     6.9150 ca         1 BIK      -0.136000
      4 C8          24.1930    15.6800     6.1620 ca         1 BIK      -0.091000
      5 C8A         24.2360    16.8330     5.3570 ca         1 BIK      -0.009000
      6 C4A         23.1230    17.6990     5.3060 ca         1 BIK      -0.063000
      7 C5          21.9710    17.4030     6.0620 ca         1 BIK      -0.172000
      8 C4          23.1670    18.8520     4.5010 ca         1 BIK      -0.054000
      9 C1          25.3820    17.1310     4.6030 ca         1 BIK      -0.235000
     10 C2          25.4230    18.2810     3.8020 ca         1 BIK       0.216100
     11 O2          26.5500    18.5320     3.0870 oh         1 BIK      -0.625100
     12 C3          24.3190    19.1610     3.7360 ca         1 BIK      -0.226600
     13 C31         24.3480    20.4080     2.8750 c          1 BIK       0.720600
     14 O32         23.3650    21.1320     2.8560 o          1 BIK      -0.693500
     15 O31         25.3630    20.6380     2.2290 o          1 BIK      -0.693500
     16 HO6         20.1550    16.6670     7.4380 ho         1 BIK       0.450000
     17 H7          23.0110    14.4980     7.5360 ha         1 BIK       0.105000
     18 H8          25.0490    15.0090     6.2060 ha         1 BIK       0.101000
     19 H5          21.1120    18.0690     6.0240 ha         1 BIK       0.102000
     20 H4          22.3000    19.5090     4.4720 ha         1 BIK       0.124000
     21 H1          26.2440    16.4700     4.6360 ha         1 BIK       0.106000
     22 HO2         26.3480    19.3850     2.6050 ho         1 BIK       0.547000
@<TRIPOS>BOND
     1     1     2 1   
     2     1    16 1   
     3     2     3 ar  
     4     2     7 ar  
     5     3     4 ar  
     6     3    17 1   
     7     4     5 ar  
     8     4    18 1   
     9     5     6 ar  
    10     5     9 ar  
    11     6     7 ar  
    12     6     8 ar  
    13     7    19 1   
    14     8    12 ar  
    15     8    20 1   
    16     9    10 ar  
    17     9    21 1   
    18    10    11 1   
    19    10    12 ar  
    20    11    22 1   
    21    12    13 1   
    22    13    14 1   
    23    13    15 1   
@<TRIPOS>SUBSTRUCTURE
     1 BIK         1 TEMP              0 ****  ****    0 ROOT
