@<TRIPOS>MOLECULE
BIL
   24    23     1     0     0
SMALL
No Charge or Current Charge


@<TRIPOS>ATOM
      1 C            2.5080     0.0820    -0.1290 c          1 BIL       0.732000
      2 O            2.8700     0.2740    -1.2820 o          1 BIL      -0.743500
      3 CA           1.1610     0.6840     0.3130 c3         1 BIL      -0.192400
      4 CB          -0.0330    -0.2240    -0.0920 c3         1 BIL       0.174500
      5 N            0.1090    -1.5330     0.5700 n8         1 BIL      -0.958200
      6 CG          -1.4550     0.3740     0.2200 c3         1 BIL      -0.101700
      7 CD2         -1.6480     1.7980    -0.3760 c3         1 BIL      -0.075100
      8 CD1         -2.6070    -0.5800    -0.2450 c3         1 BIL      -0.076400
      9 CE1         -4.0340    -0.1430     0.1540 c3         1 BIL      -0.085100
     10 HA           1.1240     0.8140     1.4030 hc         1 BIL       0.015200
     11 HAA          1.0230     1.6160    -0.2440 hc         1 BIL       0.015200
     12 HB           0.0230    -0.3890    -1.1800 h1         1 BIL       0.073700
     13 HN           0.1290    -1.3840     1.5830 hn         1 BIL       0.365500
     14 HG          -1.5360     0.4750     1.3100 hc         1 BIL       0.033700
     15 H3D2        -1.4990     1.7910    -1.4630 hc         1 BIL       0.025367
     16 H2D2        -2.6490     2.1910    -0.1700 hc         1 BIL       0.025367
     17 H1D2        -0.9490     2.5160     0.0670 hc         1 BIL       0.025367
     18 H1D1        -2.5640    -0.6980    -1.3350 hc         1 BIL       0.031200
     19 H2D1        -2.4600    -1.5800     0.1780 hc         1 BIL       0.031200
     20 H3E1        -4.0880     0.0800     1.2260 hc         1 BIL       0.021033
     21 H2E1        -4.3560     0.7410    -0.4070 hc         1 BIL       0.021033
     22 H1E1        -4.7480    -0.9470    -0.0620 hc         1 BIL       0.021033
     23 OXT          3.1850    -0.5220     0.6930 o          1 BIL      -0.743500
     24 HNA         -0.7490    -2.0700     0.4160 hn         1 BIL       0.365500
@<TRIPOS>BOND
     1     1     2 1   
     2     1     3 1   
     3     1    23 1   
     4     3     4 1   
     5     3    10 1   
     6     3    11 1   
     7     4     5 1   
     8     4     6 1   
     9     4    12 1   
    10     5    13 1   
    11     5    24 1   
    12     6     7 1   
    13     6     8 1   
    14     6    14 1   
    15     7    15 1   
    16     7    16 1   
    17     7    17 1   
    18     8     9 1   
    19     8    18 1   
    20     8    19 1   
    21     9    20 1   
    22     9    21 1   
    23     9    22 1   
@<TRIPOS>SUBSTRUCTURE
     1 BIL         1 TEMP              0 ****  ****    0 ROOT
