@<TRIPOS>MOLECULE
BIL
   24    23     1     0     0
SMALL
abcg2


@<TRIPOS>ATOM
      1 C            2.4590     0.1310    -0.0410 c          1 BIL       0.732000
      2 O            2.5970    -0.0770    -1.2650 o          1 BIL      -0.743500
      3 CA           1.0810     0.6280     0.4210 c3         1 BIL      -0.192400
      4 CB          -0.0700    -0.2220    -0.1110 c3         1 BIL       0.174500
      5 N            0.1340    -1.5810     0.3820 n8         1 BIL      -0.958200
      6 CG          -1.4530     0.3910     0.2160 c3         1 BIL      -0.101700
      7 CD2         -1.6250     1.7480    -0.4650 c3         1 BIL      -0.075100
      8 CD1         -2.5950    -0.5530    -0.1740 c3         1 BIL      -0.076400
      9 CE1         -3.9830    -0.0690     0.2300 c3         1 BIL      -0.085100
     10 HA           1.0290     0.6530     1.5150 hc         1 BIL       0.015200
     11 HAA          0.9710     1.6640     0.0870 hc         1 BIL       0.015200
     12 HB           0.0210    -0.2630    -1.2020 h1         1 BIL       0.073700
     13 HN          -0.0730    -1.6170     1.3740 hn         1 BIL       0.365500
     14 HG          -1.5040     0.5400     1.3040 hc         1 BIL       0.033700
     15 H3D2        -1.5010     1.6520    -1.5470 hc         1 BIL       0.025367
     16 H2D2        -2.6120     2.1720    -0.2830 hc         1 BIL       0.025367
     17 H1D2        -0.8990     2.4820    -0.1150 hc         1 BIL       0.025367
     18 H1D1        -2.5670    -0.7240    -1.2570 hc         1 BIL       0.031200
     19 H2D1        -2.4350    -1.5290     0.2890 hc         1 BIL       0.031200
     20 H3E1        -4.0240     0.1660     1.2960 hc         1 BIL       0.021033
     21 H2E1        -4.2910     0.8230    -0.3150 hc         1 BIL       0.021033
     22 H1E1        -4.7330    -0.8370     0.0360 hc         1 BIL       0.021033
     23 OXT          3.3470     0.0080     0.8280 o          1 BIL      -0.743500
     24 HNA         -0.5150    -2.2210    -0.0570 hn         1 BIL       0.365500
@<TRIPOS>BOND
     1     1     2 1   
     2     1     3 1   
     3     1    23 1   
     4     3     4 1   
     5     3    10 1   
     6     3    11 1   
     7     4     5 1   
     8     4     6 1   
     9     4    12 1   
    10     5    13 1   
    11     5    24 1   
    12     6     7 1   
    13     6     8 1   
    14     6    14 1   
    15     7    15 1   
    16     7    16 1   
    17     7    17 1   
    18     8     9 1   
    19     8    18 1   
    20     8    19 1   
    21     9    20 1   
    22     9    21 1   
    23     9    22 1   
@<TRIPOS>SUBSTRUCTURE
     1 BIL         1 TEMP              0 ****  ****    0 ROOT
