@<TRIPOS>MOLECULE
BIM
   74    80     1     0     0
SMALL
No Charge or Current Charge


@<TRIPOS>ATOM
      1 C1           4.0640    -1.8260    -3.3920 c          1 BIM       0.563200
      2 C3           4.7990    -1.3390    -2.1980 cc         1 BIM      -0.081200
      3 C4           2.8520    -0.0880    -2.4950 c          1 BIM       0.560200
      4 C5           4.0250    -0.3280    -1.6110 cd         1 BIM      -0.033200
      5 C6           4.2460     0.2210    -0.2850 cd         1 BIM      -0.120200
      6 C7           3.7040     1.4210     0.3300 ca         1 BIM      -0.062800
      7 C8           4.8910    -0.5510     0.6750 cc         1 BIM      -0.110100
      8 N10          4.7660     0.1780     1.8740 na         1 BIM      -0.079700
      9 C11          6.1400    -1.7950    -1.8470 cc         1 BIM      -0.112200
     10 C12          6.6370    -3.0160    -2.2990 cd         1 BIM      -0.107100
     11 C15          8.2770    -2.0530    -1.1130 ca         1 BIM      -0.047200
     12 C16          3.0490     2.5460    -0.1970 ca         1 BIM      -0.051000
     13 C17          2.7000     3.5870     0.6890 ca         1 BIM      -0.137000
     14 C18          3.7270     2.3780     2.5560 ca         1 BIM      -0.128000
     15 C19          3.0310     3.5000     2.0610 ca         1 BIM      -0.096000
     16 C21          8.6320     0.5020    -0.0590 ca         1 BIM      -0.137000
     17 C23          9.6720    -0.4470     0.0380 ca         1 BIM      -0.104000
     18 O25          4.3400    -2.7030    -4.1960 o          1 BIM      -0.492000
     19 C27          9.2810    -5.2860    -1.1770 c3         1 BIM      -0.089400
     20 C30          5.8300    -5.3460     0.0710 ca         1 BIM      -0.153000
     21 C32          5.0110    -4.8560     1.1000 ca         1 BIM      -0.066000
     22 C33          6.9730    -4.8720     2.5180 ca         1 BIM       0.572900
     23 C34          5.5860    -4.6200     2.3620 ca         1 BIM      -0.147300
     24 C35          5.3000    -0.1730     3.2080 c3         1 BIM       0.076600
     25 C36          5.6210    -1.6720     3.4070 c3         1 BIM      -0.100400
     26 C37          4.7020    -4.0870     3.4940 c3         1 BIM      -0.025100
     27 C38          4.3730    -2.5880     3.3430 c3         1 BIM      -0.074400
     28 C40          7.5070    -5.5990     4.8400 c3         1 BIM       0.200600
     29 C13          7.2390    -1.1560    -1.1460 ca         1 BIM      -0.073800
     30 C20          7.4120     0.1600    -0.6760 ca         1 BIM      -0.085000
     31 C22          9.5080    -1.7330    -0.5120 ca         1 BIM      -0.109000
     32 N14          7.9410    -3.2090    -1.8010 na         1 BIM      -0.074700
     33 C26          8.9170    -4.2240    -2.2380 c3         1 BIM       0.075600
     34 C28          8.1050    -6.1920    -0.7290 c3         1 BIM      -0.117700
     35 C29          7.1930    -5.5770     0.3280 ca         1 BIM       0.361300
     36 N31          7.7530    -5.3460     1.5330 nb         1 BIM      -0.673000
     37 N39          7.6660    -4.6560     3.7190 nh         1 BIM      -0.790300
     38 C41          8.8540    -3.7830     3.7410 c3         1 BIM       0.200600
     39 O24          1.9060     0.6730    -2.3790 o          1 BIM      -0.482000
     40 N2           2.9880    -1.0160    -3.4670 ns         1 BIM      -0.491500
     41 C9           4.0540     1.3510     1.6550 ca         1 BIM      -0.055200
     42 H8           5.3510    -1.5290     0.6240 h4         1 BIM       0.228000
     43 H12          6.1620    -3.7740    -2.9120 h4         1 BIM       0.217000
     44 H16          2.8360     2.6410    -1.2570 ha         1 BIM       0.122000
     45 H17          2.1870     4.4680     0.3110 ha         1 BIM       0.112000
     46 H18          4.0060     2.3250     3.6050 ha         1 BIM       0.111000
     47 H19          2.7650     4.3120     2.7350 ha         1 BIM       0.110000
     48 H21          8.7770     1.5070     0.3300 ha         1 BIM       0.109000
     49 H23         10.6140    -0.1740     0.5070 ha         1 BIM       0.111000
     50 H271         9.7380    -4.8020    -0.3050 hc         1 BIM       0.065200
     51 H272        10.0590    -5.9270    -1.6090 hc         1 BIM       0.065200
     52 H30          5.4120    -5.5570    -0.9080 ha         1 BIM       0.124000
     53 H32          3.9530    -4.6740     0.9220 ha         1 BIM       0.124000
     54 H351         4.5740     0.1300     3.9720 h1         1 BIM       0.059700
     55 H352         6.2160     0.4100     3.3680 h1         1 BIM       0.059700
     56 H361         6.1000    -1.7980     4.3850 hc         1 BIM       0.055700
     57 H362         6.3620    -1.9820     2.6610 hc         1 BIM       0.055700
     58 H371         3.7590    -4.6480     3.5110 hc         1 BIM       0.050200
     59 H372         5.1530    -4.2500     4.4780 hc         1 BIM       0.050200
     60 H381         3.8400    -2.4380     2.3970 hc         1 BIM       0.047700
     61 H382         3.6780    -2.2980     4.1400 hc         1 BIM       0.047700
     62 H401         6.6700    -6.2850     4.6530 h1         1 BIM       0.028867
     63 H402         7.3000    -5.0540     5.7710 h1         1 BIM       0.028867
     64 H403         8.4190    -6.1970     4.9730 h1         1 BIM       0.028867
     65 H20          6.6400     0.9130    -0.7940 ha         1 BIM       0.116000
     66 H22         10.3260    -2.4480    -0.4840 ha         1 BIM       0.119000
     67 H261         9.8320    -3.7060    -2.5530 h1         1 BIM       0.056700
     68 H262         8.5140    -4.7300    -3.1240 h1         1 BIM       0.056700
     69 H281         8.5250    -7.1200    -0.3230 hc         1 BIM       0.051200
     70 H282         7.5260    -6.4930    -1.6100 hc         1 BIM       0.051200
     71 H411         8.7650    -2.9940     2.9810 h1         1 BIM       0.028867
     72 H412         9.7640    -4.3640     3.5400 h1         1 BIM       0.028867
     73 H413         8.9540    -3.2970     4.7200 h1         1 BIM       0.028867
     74 HN2          2.3060    -1.1120    -4.2040 hn         1 BIM       0.347500
@<TRIPOS>BOND
     1     1     2 1   
     2     1    18 2   
     3     1    40 1   
     4     2     4 2   
     5     2     9 1   
     6     3     4 1   
     7     3    39 2   
     8     3    40 1   
     9     4     5 1   
    10     5     6 1   
    11     5     7 2   
    12     6    12 ar  
    13     6    41 ar  
    14     7     8 1   
    15     7    42 1   
    16     8    24 1   
    17     8    41 1   
    18     9    10 2   
    19     9    29 1   
    20    10    32 1   
    21    10    43 1   
    22    11    29 ar  
    23    11    31 ar  
    24    11    32 1   
    25    12    13 ar  
    26    12    44 1   
    27    13    15 ar  
    28    13    45 1   
    29    14    15 ar  
    30    14    41 ar  
    31    14    46 1   
    32    15    47 1   
    33    16    17 ar  
    34    16    30 ar  
    35    16    48 1   
    36    17    31 ar  
    37    17    49 1   
    38    19    33 1   
    39    19    34 1   
    40    19    50 1   
    41    19    51 1   
    42    20    21 ar  
    43    20    35 ar  
    44    20    52 1   
    45    21    23 ar  
    46    21    53 1   
    47    22    23 ar  
    48    22    36 ar  
    49    22    37 1   
    50    23    26 1   
    51    24    25 1   
    52    24    54 1   
    53    24    55 1   
    54    25    27 1   
    55    25    56 1   
    56    25    57 1   
    57    26    27 1   
    58    26    58 1   
    59    26    59 1   
    60    27    60 1   
    61    27    61 1   
    62    28    37 1   
    63    28    62 1   
    64    28    63 1   
    65    28    64 1   
    66    29    30 ar  
    67    30    65 1   
    68    31    66 1   
    69    32    33 1   
    70    33    67 1   
    71    33    68 1   
    72    34    35 1   
    73    34    69 1   
    74    34    70 1   
    75    35    36 ar  
    76    37    38 1   
    77    38    71 1   
    78    38    72 1   
    79    38    73 1   
    80    40    74 1   
@<TRIPOS>SUBSTRUCTURE
     1 BIM         1 TEMP              0 ****  ****    0 ROOT
