@<TRIPOS>MOLECULE
BIM
   74    80     1     0     0
SMALL
bcc


@<TRIPOS>ATOM
      1 C1           5.3250    -0.4190    -3.9440 c          1 BIM       0.705700
      2 C3           5.5840    -0.6340    -2.4870 cc         1 BIM      -0.081200
      3 C4           3.9960     1.0050    -2.7930 c          1 BIM       0.702700
      4 C5           4.7550     0.1770    -1.7920 cd         1 BIM      -0.033200
      5 C6           4.5400     0.3500    -0.3760 cd         1 BIM      -0.120200
      6 C7           3.2990     0.6010     0.3180 ca         1 BIM      -0.062800
      7 C8           5.5070     0.3080     0.5990 cc         1 BIM      -0.060100
      8 N10          4.9780     0.5560     1.8180 na         1 BIM      -0.050400
      9 C11          6.5950    -1.5940    -2.0850 cc         1 BIM      -0.112200
     10 C12          6.6200    -2.9100    -2.4720 cd         1 BIM      -0.057100
     11 C15          8.4970    -2.6110    -1.3310 ca         1 BIM      -0.047200
     12 C16          1.9520     0.6680    -0.0580 ca         1 BIM      -0.069000
     13 C17          0.9920     0.8820     0.9100 ca         1 BIM      -0.155000
     14 C18          2.6570     0.9440     2.6680 ca         1 BIM      -0.146000
     15 C19          1.3410     1.0290     2.2610 ca         1 BIM      -0.114000
     16 C21          9.6980    -0.3770    -0.2620 ca         1 BIM      -0.155000
     17 C23         10.3250    -1.6290    -0.1790 ca         1 BIM      -0.122000
     18 O25          5.8480    -0.9830    -4.8730 o          1 BIM      -0.567500
     19 C27          8.0740    -5.9090    -1.2960 c3         1 BIM      -0.089400
     20 C30          5.1890    -4.4400     0.5030 ca         1 BIM      -0.236300
     21 C32          4.9060    -3.7680     1.6770 ca         1 BIM      -0.084000
     22 C33          6.9440    -4.5830     2.5850 ca         1 BIM       0.638200
     23 C34          5.7720    -3.8350     2.7650 ca         1 BIM      -0.212600
     24 C35          5.7540     0.5800     3.0440 c3         1 BIM       0.047300
     25 C36          6.1740    -0.8140     3.4820 c3         1 BIM      -0.100400
     26 C37          5.3920    -3.1580     4.0590 c3         1 BIM      -0.025100
     27 C38          5.0000    -1.6910     3.8920 c3         1 BIM      -0.074400
     28 C40          7.6510    -5.4980     4.7420 c3         1 BIM       0.200600
     29 C13          7.8230    -1.3720    -1.3750 ca         1 BIM      -0.073800
     30 C20          8.4630    -0.2370    -0.8640 ca         1 BIM      -0.103000
     31 C22          9.7420    -2.7570    -0.7230 ca         1 BIM      -0.127000
     32 N14          7.7410    -3.5280    -2.0140 na         1 BIM      -0.045400
     33 C26          8.1680    -4.8610    -2.3920 c3         1 BIM       0.046300
     34 C28          6.6640    -6.0850    -0.7340 c3         1 BIM      -0.117700
     35 C29          6.3470    -5.2040     0.4430 ca         1 BIM       0.426600
     36 N31          7.1940    -5.2460     1.4630 nb         1 BIM      -0.673000
     37 N39          7.9550    -4.7080     3.5710 nh         1 BIM      -0.790300
     38 C41          8.7690    -3.5380     3.8050 c3         1 BIM       0.200600
     39 O24          3.2390     1.9160    -2.5710 o          1 BIM      -0.557500
     40 N2           4.3590     0.5550    -4.0370 ns         1 BIM      -0.625500
     41 C9           3.6220     0.7210     1.6870 ca         1 BIM      -0.055200
     42 H8           6.5670     0.1470     0.4970 h4         1 BIM       0.178000
     43 H12          5.8960    -3.4600    -3.0520 h4         1 BIM       0.167000
     44 H16          1.6520     0.5450    -1.0890 ha         1 BIM       0.140000
     45 H17         -0.0510     0.9350     0.6250 ha         1 BIM       0.130000
     46 H18          2.9180     1.0360     3.7140 ha         1 BIM       0.129000
     47 H19          0.5660     1.1980     2.9980 ha         1 BIM       0.128000
     48 H21         10.1950     0.4950     0.1430 ha         1 BIM       0.127000
     49 H23         11.2900    -1.7110     0.3030 ha         1 BIM       0.129000
     50 H271         8.7690    -5.6930    -0.4820 hc         1 BIM       0.065200
     51 H272         8.4100    -6.8480    -1.7410 hc         1 BIM       0.065200
     52 H30          4.5140    -4.3920    -0.3410 ha         1 BIM       0.142000
     53 H32          3.9880    -3.1970     1.7500 ha         1 BIM       0.142000
     54 H351         5.1580     1.0680     3.8150 h1         1 BIM       0.059700
     55 H352         6.6300     1.2110     2.8820 h1         1 BIM       0.059700
     56 H361         6.8710    -0.7150     4.3190 hc         1 BIM       0.055700
     57 H362         6.7370    -1.2890     2.6720 hc         1 BIM       0.055700
     58 H371         4.5510    -3.7030     4.4980 hc         1 BIM       0.050200
     59 H372         6.1990    -3.2250     4.7860 hc         1 BIM       0.050200
     60 H381         4.1940    -1.6100     3.1590 hc         1 BIM       0.047700
     61 H382         4.5850    -1.3240     4.8340 hc         1 BIM       0.047700
     62 H401         7.0770    -6.3800     4.4560 h1         1 BIM       0.028867
     63 H402         7.0850    -4.9700     5.5220 h1         1 BIM       0.028867
     64 H403         8.5800    -5.8480     5.1980 h1         1 BIM       0.028867
     65 H20          8.0120     0.7440    -0.9570 ha         1 BIM       0.134000
     66 H22         10.2470    -3.7130    -0.6770 ha         1 BIM       0.137000
     67 H261         9.1930    -4.8000    -2.7640 h1         1 BIM       0.056700
     68 H262         7.5500    -5.1650    -3.2380 h1         1 BIM       0.056700
     69 H281         6.5490    -7.1210    -0.4000 hc         1 BIM       0.051200
     70 H282         5.9190    -5.9420    -1.5200 hc         1 BIM       0.051200
     71 H411         9.0480    -3.0820     2.8550 h1         1 BIM       0.028867
     72 H412         9.6920    -3.8340     4.3090 h1         1 BIM       0.028867
     73 H413         8.2960    -2.7640     4.4240 h1         1 BIM       0.028867
     74 HN2          4.0180     0.9430    -4.9050 hn         1 BIM       0.347500
@<TRIPOS>BOND
     1     1     2 1   
     2     1    18 2   
     3     1    40 1   
     4     2     4 2   
     5     2     9 1   
     6     3     4 1   
     7     3    39 2   
     8     3    40 1   
     9     4     5 1   
    10     5     6 1   
    11     5     7 2   
    12     6    12 ar  
    13     6    41 ar  
    14     7     8 1   
    15     7    42 1   
    16     8    24 1   
    17     8    41 1   
    18     9    10 2   
    19     9    29 1   
    20    10    32 1   
    21    10    43 1   
    22    11    29 ar  
    23    11    31 ar  
    24    11    32 1   
    25    12    13 ar  
    26    12    44 1   
    27    13    15 ar  
    28    13    45 1   
    29    14    15 ar  
    30    14    41 ar  
    31    14    46 1   
    32    15    47 1   
    33    16    17 ar  
    34    16    30 ar  
    35    16    48 1   
    36    17    31 ar  
    37    17    49 1   
    38    19    33 1   
    39    19    34 1   
    40    19    50 1   
    41    19    51 1   
    42    20    21 ar  
    43    20    35 ar  
    44    20    52 1   
    45    21    23 ar  
    46    21    53 1   
    47    22    23 ar  
    48    22    36 ar  
    49    22    37 1   
    50    23    26 1   
    51    24    25 1   
    52    24    54 1   
    53    24    55 1   
    54    25    27 1   
    55    25    56 1   
    56    25    57 1   
    57    26    27 1   
    58    26    58 1   
    59    26    59 1   
    60    27    60 1   
    61    27    61 1   
    62    28    37 1   
    63    28    62 1   
    64    28    63 1   
    65    28    64 1   
    66    29    30 ar  
    67    30    65 1   
    68    31    66 1   
    69    32    33 1   
    70    33    67 1   
    71    33    68 1   
    72    34    35 1   
    73    34    69 1   
    74    34    70 1   
    75    35    36 ar  
    76    37    38 1   
    77    38    71 1   
    78    38    72 1   
    79    38    73 1   
    80    40    74 1   
@<TRIPOS>SUBSTRUCTURE
     1 BIM         1 TEMP              0 ****  ****    0 ROOT
