@<TRIPOS>MOLECULE
BIN
   47    48     1     0     0
SMALL
No Charge or Current Charge


@<TRIPOS>ATOM
      1 C1          27.7540     2.6050    53.0380 cp         1 BIN      -0.025000
      2 C2          27.3540     3.7020    52.2320 ca         1 BIN       0.190000
      3 C3          26.9000     4.8940    52.8240 ca         1 BIN      -0.121000
      4 C4          26.8330     5.0070    54.2230 ca         1 BIN      -0.104000
      5 C5          27.2190     3.9270    55.0330 ca         1 BIN      -0.122000
      6 C6          27.6760     2.7360    54.4440 ca         1 BIN      -0.069000
      7 C7          28.2450     1.3310    52.4280 cp         1 BIN       0.061000
      8 C8          27.3870     0.2140    52.2360 ca         1 BIN      -0.158600
      9 C9          30.0950    -0.0950    51.6270 ca         1 BIN      -0.002900
     10 C11         27.8660    -1.0070    51.7010 ca         1 BIN      -0.073300
     11 C12         29.6230     1.1220    52.1620 ca         1 BIN      -0.114600
     12 C13         30.5570     2.2250    52.5760 c          1 BIN       0.734600
     13 C14         31.5740    -0.3520    51.4760 c          1 BIN       0.734600
     14 C15         26.9360    -2.2200    51.6040 c3         1 BIN      -0.055800
     15 C16         30.1060    -3.1620    50.0540 c3         1 BIN      -0.109100
     16 C18         25.9650     0.4070    52.6910 c          1 BIN       0.620700
     17 C19         23.9270     1.6560    52.2690 c3         1 BIN       0.179300
     18 C20         23.8960     2.5240    53.5470 c3         1 BIN      -0.105600
     19 C21         23.3510     2.3970    51.0490 c3         1 BIN      -0.105600
     20 N10         29.1830    -1.0750    51.2040 na         1 BIN       0.057300
     21 O3A         31.2950     2.0110    53.5270 o          1 BIN      -0.666000
     22 O3B         30.5510     3.2660    51.9350 o          1 BIN      -0.666000
     23 O4A         32.2080     0.3710    50.7190 o          1 BIN      -0.647000
     24 O4B         32.0630    -1.2810    52.1030 o          1 BIN      -0.647000
     25 O8A         25.4460    -0.2830    53.5580 o          1 BIN      -0.497000
     26 O8          25.2940     1.3460    51.9480 os         1 BIN      -0.424100
     27 Cl2         27.4000     3.6040    50.4710 cl         1 BIN      -0.186000
     28 H3          26.5960     5.7270    52.1970 ha         1 BIN       0.117000
     29 H4          26.4790     5.9300    54.6780 ha         1 BIN       0.101000
     30 H5          27.1650     4.0120    56.1160 ha         1 BIN       0.108000
     31 H6          27.9760     1.9040    55.0790 ha         1 BIN       0.127000
     32 H151        27.4190    -3.1040    51.1760 hc         1 BIN       0.055700
     33 H152        26.5750    -2.5160    52.5960 hc         1 BIN       0.055700
     34 H153        26.0610    -1.9950    50.9830 hc         1 BIN       0.055700
     35 H161        30.1690    -3.6470    49.0730 hc         1 BIN       0.053700
     36 H162        31.1240    -3.0760    50.4480 hc         1 BIN       0.053700
     37 H163        29.5370    -3.8190    50.7220 hc         1 BIN       0.053700
     38 H171        30.0660    -1.1370    49.2840 h1         1 BIN       0.077700
     39 H172        28.4840    -1.8920    49.3860 h1         1 BIN       0.077700
     40 H19         23.3420     0.7400    52.4280 h1         1 BIN       0.051700
     41 H201        24.3130     1.9880    54.4070 hc         1 BIN       0.047367
     42 H202        24.4680     3.4470    53.4040 hc         1 BIN       0.047367
     43 H203        22.8640     2.7990    53.7930 hc         1 BIN       0.047367
     44 H211        23.3930     1.7590    50.1580 hc         1 BIN       0.047367
     45 H212        22.3030     2.6690    51.2240 hc         1 BIN       0.047367
     46 H213        23.9170     3.3150    50.8460 hc         1 BIN       0.047367
     47 C17         29.4370    -1.7750    49.9180 c3         1 BIN       0.048600
@<TRIPOS>BOND
     1     1     2 ar  
     2     1     6 ar  
     3     1     7 1   
     4     2     3 ar  
     5     2    27 1   
     6     3     4 ar  
     7     3    28 1   
     8     4     5 ar  
     9     4    29 1   
    10     5     6 ar  
    11     5    30 1   
    12     6    31 1   
    13     7     8 ar  
    14     7    11 ar  
    15     8    10 ar  
    16     8    16 1   
    17     9    11 ar  
    18     9    13 1   
    19     9    20 2   
    20    10    14 1   
    21    10    20 1   
    22    11    12 1   
    23    12    21 1   
    24    12    22 1   
    25    13    23 1   
    26    13    24 1   
    27    14    32 1   
    28    14    33 1   
    29    14    34 1   
    30    15    35 1   
    31    15    36 1   
    32    15    37 1   
    33    15    47 1   
    34    16    25 2   
    35    16    26 1   
    36    17    18 1   
    37    17    19 1   
    38    17    26 1   
    39    17    40 1   
    40    18    41 1   
    41    18    42 1   
    42    18    43 1   
    43    19    44 1   
    44    19    45 1   
    45    19    46 1   
    46    20    47 1   
    47    38    47 1   
    48    39    47 1   
@<TRIPOS>SUBSTRUCTURE
     1 BIN         1 TEMP              0 ****  ****    0 ROOT
