@<TRIPOS>MOLECULE
BIN
   47    48     1     0     0
SMALL
abcg2


@<TRIPOS>ATOM
      1 C1          27.7900     2.5830    53.0260 cp         1 BIN      -0.025000
      2 C2          27.3100     3.7110    52.3720 ca         1 BIN       0.190000
      3 C3          26.8810     4.8200    53.0790 ca         1 BIN      -0.121000
      4 C4          26.9260     4.8040    54.4670 ca         1 BIN      -0.104000
      5 C5          27.3930     3.6850    55.1370 ca         1 BIN      -0.122000
      6 C6          27.8240     2.5800    54.4160 ca         1 BIN      -0.069000
      7 C7          28.2740     1.3930    52.2880 cp         1 BIN       0.061000
      8 C8          27.4020     0.3480    51.9880 ca         1 BIN      -0.158600
      9 C9          30.0380     0.1130    51.3210 ca         1 BIN      -0.002900
     10 C11         27.8370    -0.7620    51.2890 ca         1 BIN      -0.073300
     11 C12         29.6130     1.2670    51.9590 ca         1 BIN      -0.114600
     12 C13         30.6190     2.3610    52.3150 c          1 BIN       0.734600
     13 C14         31.5280    -0.0760    51.0120 c          1 BIN       0.734600
     14 C15         26.8820    -1.8500    50.9120 c3         1 BIN      -0.055800
     15 C16         29.8340    -3.2380    51.0500 c3         1 BIN      -0.109100
     16 C18         25.9950     0.3960    52.5020 c          1 BIN       0.620700
     17 C19         23.9300     1.5830    52.3170 c3         1 BIN       0.179300
     18 C20         23.9420     2.4620    53.5510 c3         1 BIN      -0.105600
     19 C21         23.2510     2.2440    51.1380 c3         1 BIN      -0.105600
     20 N10         29.1520    -0.8390    50.9580 na         1 BIN       0.057300
     21 O3A         31.5250     2.0090    53.0860 o          1 BIN      -0.666000
     22 O3B         30.4010     3.4680    51.8090 o          1 BIN      -0.666000
     23 O4A         31.9530     0.6650    50.1180 o          1 BIN      -0.647000
     24 O4B         32.1050    -0.9320    51.6900 o          1 BIN      -0.647000
     25 O8A         25.6080    -0.3310    53.3800 o          1 BIN      -0.497000
     26 O8          25.2910     1.3150    51.8870 os         1 BIN      -0.424100
     27 CL2         27.2290     3.7270    50.6480 cl         1 BIN      -0.186000
     28 H3          26.5110     5.6900    52.5540 ha         1 BIN       0.117000
     29 H4          26.5890     5.6720    55.0180 ha         1 BIN       0.101000
     30 H5          27.4250     3.6680    56.2180 ha         1 BIN       0.108000
     31 H6          28.1970     1.7060    54.9330 ha         1 BIN       0.127000
     32 H151        27.1400    -2.3500    49.9840 hc         1 BIN       0.055700
     33 H152        26.8270    -2.6050    51.6970 hc         1 BIN       0.055700
     34 H153        25.8820    -1.4460    50.7750 hc         1 BIN       0.055700
     35 H161        30.2560    -4.0300    50.4330 hc         1 BIN       0.053700
     36 H162        30.5280    -3.0350    51.8620 hc         1 BIN       0.053700
     37 H163        28.8990    -3.6080    51.4670 hc         1 BIN       0.053700
     38 H171        30.5730    -1.7230    49.7120 h1         1 BIN       0.077700
     39 H172        28.9440    -2.1860    49.3760 h1         1 BIN       0.077700
     40 H19         23.4440     0.6290    52.5390 h1         1 BIN       0.051700
     41 H201        24.4760     2.0040    54.3830 hc         1 BIN       0.047367
     42 H202        24.4010     3.4280    53.3370 hc         1 BIN       0.047367
     43 H203        22.9160     2.6400    53.8740 hc         1 BIN       0.047367
     44 H211        23.2350     1.5910    50.2650 hc         1 BIN       0.047367
     45 H212        22.2200     2.4790    51.3980 hc         1 BIN       0.047367
     46 H213        23.7540     3.1750    50.8680 hc         1 BIN       0.047367
     47 C17         29.6420    -2.0070    50.1880 c3         1 BIN       0.048600
@<TRIPOS>BOND
     1     1     2 ar  
     2     1     6 ar  
     3     1     7 1   
     4     2     3 ar  
     5     2    27 1   
     6     3     4 ar  
     7     3    28 1   
     8     4     5 ar  
     9     4    29 1   
    10     5     6 ar  
    11     5    30 1   
    12     6    31 1   
    13     7     8 ar  
    14     7    11 ar  
    15     8    10 ar  
    16     8    16 1   
    17     9    11 ar  
    18     9    13 1   
    19     9    20 2   
    20    10    14 1   
    21    10    20 1   
    22    11    12 1   
    23    12    21 1   
    24    12    22 1   
    25    13    23 1   
    26    13    24 1   
    27    14    32 1   
    28    14    33 1   
    29    14    34 1   
    30    15    35 1   
    31    15    36 1   
    32    15    37 1   
    33    15    47 1   
    34    16    25 2   
    35    16    26 1   
    36    17    18 1   
    37    17    19 1   
    38    17    26 1   
    39    17    40 1   
    40    18    41 1   
    41    18    42 1   
    42    18    43 1   
    43    19    44 1   
    44    19    45 1   
    45    19    46 1   
    46    20    47 1   
    47    38    47 1   
    48    39    47 1   
@<TRIPOS>SUBSTRUCTURE
     1 BIN         1 TEMP              0 ****  ****    0 ROOT
