@<TRIPOS>MOLECULE
BIO
   28    29     1     0     0
SMALL
abcg2


@<TRIPOS>ATOM
      1 N1           1.2090     0.2970    -2.6750 nc         1 BIO      -0.775700
      2 N2           0.4040     0.4440    -4.8100 nv         1 BIO      -1.057200
      3 C2           0.2130     0.2070    -3.5140 cd         1 BIO       0.755800
      4 N3          -1.0590    -0.1220    -3.1340 ns         1 BIO      -0.460400
      5 C4          -1.4400    -0.3940    -1.8370 c          1 BIO       0.493500
      6 O4          -2.5840    -0.6810    -1.5550 o          1 BIO      -0.495000
      7 C4A         -0.3290    -0.2920    -0.8940 ca         1 BIO       0.152500
      8 C8A          0.9460     0.0500    -1.3740 ca         1 BIO       0.334000
      9 N8           1.9730     0.1340    -0.5110 nb         1 BIO      -0.114000
     10 C7           1.7230    -0.1010     0.7530 ca         1 BIO       0.113900
     11 C6           0.4430    -0.4360     1.2300 ca         1 BIO       0.226300
     12 N5          -0.5630    -0.5270     0.3930 nb         1 BIO      -0.587000
     13 C9           0.1380    -0.6610     2.6890 c3         1 BIO       0.109000
     14 O9          -0.8870    -1.6050     2.8460 oh         1 BIO      -0.648000
     15 C10         -0.2220     0.6830     3.3550 c3         1 BIO       0.136300
     16 O10          0.8030     1.6270     3.1260 oh         1 BIO      -0.654000
     17 C11         -0.5250     0.5200     4.8340 c3         1 BIO      -0.121100
     18 HN21         1.3280     0.6740    -5.1330 hn         1 BIO       0.515000
     19 HN22        -0.3280     0.3590    -5.4930 hn         1 BIO       0.515000
     20 H3          -1.7850    -0.1750    -3.8380 hn         1 BIO       0.326500
     21 H7           2.5610    -0.0450     1.4400 h4         1 BIO       0.031100
     22 H9           1.0290    -1.0620     3.1860 h1         1 BIO       0.069700
     23 HO9         -1.5480    -1.4310     2.1640 ho         1 BIO       0.473000
     24 H10         -1.1080     1.0780     2.8460 h1         1 BIO       0.082700
     25 HO1          1.5560     1.4040     3.6830 ho         1 BIO       0.437000
     26 H111        -0.7970     1.4780     5.2770 hc         1 BIO       0.046367
     27 H112        -1.3510    -0.1700     4.9970 hc         1 BIO       0.046367
     28 H113         0.3440     0.1320     5.3730 hc         1 BIO       0.046367
@<TRIPOS>BOND
     1     1     3 2   
     2     1     8 1   
     3     2     3 1   
     4     2    18 1   
     5     2    19 1   
     6     3     4 1   
     7     4     5 1   
     8     4    20 1   
     9     5     6 2   
    10     5     7 1   
    11     7     8 ar  
    12     7    12 ar  
    13     8     9 ar  
    14     9    10 ar  
    15    10    11 ar  
    16    10    21 1   
    17    11    12 ar  
    18    11    13 1   
    19    13    14 1   
    20    13    15 1   
    21    13    22 1   
    22    14    23 1   
    23    15    16 1   
    24    15    17 1   
    25    15    24 1   
    26    16    25 1   
    27    17    26 1   
    28    17    27 1   
    29    17    28 1   
@<TRIPOS>SUBSTRUCTURE
     1 BIO         1 TEMP              0 ****  ****    0 ROOT
