@<TRIPOS>MOLECULE
BIO
   28    29     1     0     0
SMALL
No Charge or Current Charge


@<TRIPOS>ATOM
      1 N1           1.1930     0.3730    -2.8340 nc         1 BIO      -0.775700
      2 N2           0.3830     0.4420    -4.8660 nv         1 BIO      -1.057200
      3 C2           0.1430     0.2240    -3.5940 cd         1 BIO       0.755800
      4 N3          -1.1060    -0.1170    -3.2620 ns         1 BIO      -0.460400
      5 C4          -1.4930    -0.3750    -1.9910 c          1 BIO       0.493500
      6 O4          -2.6500    -0.6790    -1.7280 o          1 BIO      -0.495000
      7 C4A         -0.3840    -0.2470    -0.9810 ca         1 BIO       0.152500
      8 C8A          0.9120     0.1250    -1.4660 ca         1 BIO       0.334000
      9 N8           1.9220     0.2430    -0.5710 nb         1 BIO      -0.114000
     10 C7           1.6720     0.0120     0.7340 ca         1 BIO       0.113900
     11 C6           0.3930    -0.3450     1.1990 ca         1 BIO       0.226300
     12 N5          -0.6480    -0.4840     0.3400 nb         1 BIO      -0.587000
     13 C9           0.1190    -0.6170     2.6870 c3         1 BIO       0.109000
     14 O9          -0.9910    -1.5300     2.8090 oh         1 BIO      -0.648000
     15 C10         -0.1740     0.6990     3.4770 c3         1 BIO       0.136300
     16 O10          0.9390     1.6000     3.3720 oh         1 BIO      -0.654000
     17 C11         -0.4610     0.4690     4.9770 c3         1 BIO      -0.121100
     18 HN21         1.3730     0.5170    -5.0580 hn         1 BIO       0.515000
     19 HN22        -0.1340    -0.1200    -5.5300 hn         1 BIO       0.515000
     20 H3          -1.8190    -0.1660    -3.9710 hn         1 BIO       0.326500
     21 H7           2.5140     0.1150     1.4160 h4         1 BIO       0.031100
     22 H9           1.0180    -1.0780     3.1190 h1         1 BIO       0.069700
     23 HO9         -1.4390    -1.4840     1.9290 ho         1 BIO       0.473000
     24 H10         -1.0640     1.1640     3.0280 h1         1 BIO       0.082700
     25 HO1          1.5440     1.4050     4.1210 ho         1 BIO       0.437000
     26 H111        -0.6290     1.4240     5.4900 hc         1 BIO       0.046367
     27 H112        -1.3620    -0.1420     5.1120 hc         1 BIO       0.046367
     28 H113         0.3750    -0.0450     5.4650 hc         1 BIO       0.046367
@<TRIPOS>BOND
     1     1     3 2   
     2     1     8 1   
     3     2     3 1   
     4     2    18 1   
     5     2    19 1   
     6     3     4 1   
     7     4     5 1   
     8     4    20 1   
     9     5     6 2   
    10     5     7 1   
    11     7     8 ar  
    12     7    12 ar  
    13     8     9 ar  
    14     9    10 ar  
    15    10    11 ar  
    16    10    21 1   
    17    11    12 ar  
    18    11    13 1   
    19    13    14 1   
    20    13    15 1   
    21    13    22 1   
    22    14    23 1   
    23    15    16 1   
    24    15    17 1   
    25    15    24 1   
    26    16    25 1   
    27    17    26 1   
    28    17    27 1   
    29    17    28 1   
@<TRIPOS>SUBSTRUCTURE
     1 BIO         1 TEMP              0 ****  ****    0 ROOT
