@<TRIPOS>MOLECULE
BIP
   23    23     1     0     0
SMALL
bcc


@<TRIPOS>ATOM
      1 C1           2.2400     0.1040     0.7840 c          1 BIP       0.932600
      2 O1           2.4910    -1.0190     1.2620 o          1 BIP      -0.826300
      3 O2           2.8630     1.1630     0.9860 o          1 BIP      -0.826300
      4 C2           1.0580     0.1730    -0.2100 c3         1 BIP      -0.197700
      5 C3          -0.1320    -0.6380     0.2440 c3         1 BIP       0.182500
      6 I           -0.9810     0.1480     2.1030 i          1 BIP      -0.369900
      7 C            1.5390    -0.3690    -1.5750 c3         1 BIP      -0.029100
      8 C7           0.5350    -0.1760    -2.6780 ca         1 BIP      -0.051300
      9 C8           0.3500     1.0850    -3.2450 ca         1 BIP      -0.132000
     10 C9          -0.5900     1.2870    -4.2450 ca         1 BIP      -0.136500
     11 C4          -1.3670     0.2270    -4.6970 ca         1 BIP      -0.154000
     12 C5          -1.1910    -1.0330    -4.1430 ca         1 BIP      -0.136500
     13 C6          -0.2460    -1.2310    -3.1430 ca         1 BIP      -0.132000
     14 H2           0.7610     1.2160    -0.3490 hc         1 BIP       0.048700
     15 H31         -0.9600    -0.6170    -0.4600 h1         1 BIP       0.054700
     16 H32          0.1380    -1.6670     0.4700 h1         1 BIP       0.054700
     17 H1           2.4640     0.1540    -1.8350 hc         1 BIP       0.055700
     18 H2A          1.7920    -1.4270    -1.4750 hc         1 BIP       0.055700
     19 H7           0.9550     1.9170    -2.9030 ha         1 BIP       0.133000
     20 H3          -0.7150     2.2730    -4.6750 ha         1 BIP       0.115000
     21 H4          -2.1000     0.3810    -5.4780 ha         1 BIP       0.112000
     22 H5          -1.7900    -1.8660    -4.4880 ha         1 BIP       0.115000
     23 H6          -0.1140    -2.2200    -2.7200 ha         1 BIP       0.133000
@<TRIPOS>BOND
     1     1     2 1   
     2     1     3 1   
     3     1     4 1   
     4     4     5 1   
     5     4     7 1   
     6     4    14 1   
     7     5     6 1   
     8     5    15 1   
     9     5    16 1   
    10     7     8 1   
    11     7    17 1   
    12     7    18 1   
    13     8     9 ar  
    14     8    13 ar  
    15     9    10 ar  
    16     9    19 1   
    17    10    11 ar  
    18    10    20 1   
    19    11    12 ar  
    20    11    21 1   
    21    12    13 ar  
    22    12    22 1   
    23    13    23 1   
@<TRIPOS>SUBSTRUCTURE
     1 BIP         1 TEMP              0 ****  ****    0 ROOT
