@<TRIPOS>MOLECULE
BIP
   23    23     1     0     0
SMALL
No Charge or Current Charge


@<TRIPOS>ATOM
      1 C1           2.2470     0.0330     0.8150 c          1 BIP       0.722000
      2 O1           2.6420    -1.0830     1.1210 o          1 BIP      -0.721000
      3 O2           2.7110     1.0620     1.2830 o          1 BIP      -0.721000
      4 C2           1.1210     0.1530    -0.2240 c3         1 BIP      -0.197700
      5 C3          -0.1600    -0.5370     0.2880 c3         1 BIP       0.176600
      6 I           -0.9700     0.3900     2.1690 i          1 BIP      -0.364000
      7 C            1.5750    -0.3980    -1.6030 c3         1 BIP      -0.029100
      8 C7           0.5370    -0.1890    -2.7000 ca         1 BIP      -0.051300
      9 C8           0.3050     1.0990    -3.2210 ca         1 BIP      -0.114000
     10 C9          -0.6570     1.2960    -4.2280 ca         1 BIP      -0.118500
     11 C4          -1.3910     0.2050    -4.7210 ca         1 BIP      -0.136000
     12 C5          -1.1640    -1.0820    -4.2070 ca         1 BIP      -0.118500
     13 C6          -0.2020    -1.2790    -3.2010 ca         1 BIP      -0.114000
     14 H2           0.8960     1.2180    -0.3530 hc         1 BIP       0.048700
     15 H31         -0.9730    -0.4540    -0.4440 h1         1 BIP       0.054700
     16 H32          0.0180    -1.5960     0.5160 h1         1 BIP       0.054700
     17 H1           2.5110     0.0990    -1.8910 hc         1 BIP       0.055700
     18 H2A          1.8190    -1.4630    -1.5070 hc         1 BIP       0.055700
     19 H7           0.8690     1.9490    -2.8440 ha         1 BIP       0.115000
     20 H3          -0.8320     2.2930    -4.6240 ha         1 BIP       0.097000
     21 H4          -2.1350     0.3570    -5.4990 ha         1 BIP       0.094000
     22 H5          -1.7320    -1.9280    -4.5880 ha         1 BIP       0.097000
     23 H6          -0.0350    -2.2800    -2.8080 ha         1 BIP       0.115000
@<TRIPOS>BOND
     1     1     2 1   
     2     1     3 1   
     3     1     4 1   
     4     4     5 1   
     5     4     7 1   
     6     4    14 1   
     7     5     6 1   
     8     5    15 1   
     9     5    16 1   
    10     7     8 1   
    11     7    17 1   
    12     7    18 1   
    13     8     9 ar  
    14     8    13 ar  
    15     9    10 ar  
    16     9    19 1   
    17    10    11 ar  
    18    10    20 1   
    19    11    12 ar  
    20    11    21 1   
    21    12    13 ar  
    22    12    22 1   
    23    13    23 1   
@<TRIPOS>SUBSTRUCTURE
     1 BIP         1 TEMP              0 ****  ****    0 ROOT
