@<TRIPOS>MOLECULE
BIQ
   84    87     1     0     0
SMALL
abcg2


@<TRIPOS>ATOM
      1 C1          -8.1440     1.3740     0.5170 ca         1 BIQ      -0.082500
      2 C2          -6.9500     2.0740     0.3690 ca         1 BIQ      -0.104300
      3 C3          -5.7110     1.6130     1.0720 c3         1 BIQ       0.233900
      4 O4          -5.0710     0.6660     0.2050 os         1 BIQ      -0.447100
      5 C5          -3.9340     0.1240     0.6400 c          1 BIQ       0.644100
      6 N6          -3.4500    -0.7610    -0.2580 ns         1 BIQ      -0.497900
      7 C7          -2.1690    -1.4110    -0.0810 c3         1 BIQ       0.050700
      8 C8          -1.1020    -0.4980    -0.7030 c          1 BIQ       0.584100
      9 O9          -0.7700    -0.6050    -1.8710 o          1 BIQ      -0.592100
     10 N10         -0.6510     0.4550     0.1270 ns         1 BIQ      -0.485900
     11 C11          0.1800     1.5540    -0.2900 c3         1 BIQ       0.045700
     12 C12         -0.4880     2.8860     0.0430 c3         1 BIQ      -0.183400
     13 C13         -1.7870     3.0700    -0.7190 c          1 BIQ       0.605100
     14 N14         -2.7240     3.7750    -0.0690 nt         1 BIQ      -0.608000
     15 O15         -1.9420     2.6280    -1.8460 o          1 BIQ      -0.593100
     16 C16          1.5320     1.4850     0.4180 c          1 BIQ       0.593100
     17 O17          1.6150     1.1170     1.5770 o          1 BIQ      -0.604100
     18 N18          2.5670     1.9020    -0.3260 ns         1 BIQ      -0.483900
     19 C19          3.9260     1.9450     0.1430 c3         1 BIQ       0.028700
     20 C20          4.4930     3.3530    -0.0210 c          1 BIQ       0.584100
     21 O21          4.1180     4.0920    -0.9200 o          1 BIQ      -0.605100
     22 N22          5.4580     3.6750     0.8460 ns         1 BIQ      -0.502900
     23 C23          6.2030     4.9170     0.7730 c3         1 BIQ       0.102000
     24 C24          7.2580     4.9740     1.8660 c3         1 BIQ      -0.095400
     25 C25          8.0810     6.2510     1.7820 c3         1 BIQ      -0.088100
     26 C26          4.8190     0.9570    -0.6310 c3         1 BIQ      -0.042100
     27 C27          4.2230    -0.4210    -0.6910 ca         1 BIQ      -0.088300
     28 C28          3.9330    -1.0200    -1.9110 ca         1 BIQ      -0.088500
     29 C29          3.3560    -2.2820    -1.9790 ca         1 BIQ      -0.111000
     30 C30          3.0590    -2.9490    -0.8040 ca         1 BIQ       0.098100
     31 O31          2.4930    -4.2050    -0.8720 os         1 BIQ      -0.241200
     32 C32          1.2550    -4.3330    -0.3350 ca         1 BIQ       0.180100
     33 C33          0.2130    -3.5210    -0.7610 ca         1 BIQ      -0.150000
     34 C34         -1.0750    -3.6840    -0.2660 ca         1 BIQ      -0.024300
     35 C35         -1.3150    -4.6970     0.6630 ca         1 BIQ      -0.130000
     36 C36         -0.2980    -5.5350     1.0730 ca         1 BIQ      -0.039000
     37 C37          0.9890    -5.3390     0.5910 ca         1 BIQ      -0.192200
     38 N38          2.0420    -6.2050     1.0860 no         1 BIQ       0.702200
     39 O39          1.7600    -7.3630     1.2870 o          1 BIQ      -0.391000
     40 O40          3.1300    -5.7240     1.2940 o          1 BIQ      -0.391000
     41 C41         -2.2040    -2.8010    -0.7200 c3         1 BIQ      -0.042100
     42 C42          3.3450    -2.3780     0.4290 ca         1 BIQ      -0.111000
     43 C43          3.9270    -1.1240     0.4750 ca         1 BIQ      -0.088500
     44 O44         -3.4190     0.3810     1.7090 o          1 BIQ      -0.559000
     45 C45         -6.9180     3.1860    -0.4660 ca         1 BIQ      -0.082500
     46 C46         -8.0600     3.5960    -1.1410 ca         1 BIQ      -0.113500
     47 C47         -9.2470     2.8910    -0.9880 ca         1 BIQ      -0.094000
     48 C48         -9.2880     1.7800    -0.1560 ca         1 BIQ      -0.113500
     49 H1          -8.1820     0.5080     1.1680 ha         1 BIQ       0.111000
     50 H31         -5.9580     1.1390     2.0240 h1         1 BIQ       0.054200
     51 H32         -5.0370     2.4480     1.2720 h1         1 BIQ       0.054200
     52 HN6         -3.8880    -0.8200    -1.1650 hn         1 BIQ       0.341500
     53 H7          -1.9930    -1.5200     0.9910 h1         1 BIQ       0.092700
     54 HN10        -0.9740     0.4540     1.0830 hn         1 BIQ       0.343500
     55 H11          0.3130     1.4790    -1.3690 h1         1 BIQ       0.111700
     56 H121        -0.6450     2.9750     1.1200 hc         1 BIQ       0.076200
     57 H122         0.1780     3.7080    -0.2390 hc         1 BIQ       0.076200
     58 H141        -2.5620     4.1590     0.8460 hn         1 BIQ       0.313500
     59 H142        -3.5680     4.0540    -0.5410 hn         1 BIQ       0.313500
     60 HN18         2.4020     2.1760    -1.2820 hn         1 BIQ       0.337500
     61 H19          3.9170     1.6710     1.1990 h1         1 BIQ       0.090700
     62 HN22         5.6950     3.0210     1.5740 hn         1 BIQ       0.316500
     63 H231         5.5210     5.7660     0.8710 h1         1 BIQ       0.053200
     64 H232         6.6800     5.0030    -0.2070 h1         1 BIQ       0.053200
     65 H241         7.9150     4.1040     1.7820 hc         1 BIQ       0.043700
     66 H242         6.7720     4.9100     2.8440 hc         1 BIQ       0.043700
     67 H251         8.6080     6.3180     0.8290 hc         1 BIQ       0.038367
     68 H252         7.4520     7.1370     1.8750 hc         1 BIQ       0.038367
     69 H253         8.8260     6.2890     2.5760 hc         1 BIQ       0.038367
     70 H261         4.9780     1.3320    -1.6460 hc         1 BIQ       0.061200
     71 H262         5.8000     0.9290    -0.1500 hc         1 BIQ       0.061200
     72 H28          4.1500    -0.4920    -2.8320 ha         1 BIQ       0.119000
     73 H29          3.1300    -2.7340    -2.9360 ha         1 BIQ       0.136000
     74 H33          0.4120    -2.7680    -1.5130 ha         1 BIQ       0.157000
     75 H35         -2.3120    -4.8430     1.0590 ha         1 BIQ       0.128000
     76 H36         -0.4980    -6.3200     1.7880 ha         1 BIQ       0.148000
     77 H411        -2.1990    -2.7070    -1.8070 hc         1 BIQ       0.074700
     78 H412        -3.1500    -3.2650    -0.4410 hc         1 BIQ       0.074700
     79 H42          3.1260    -2.9110     1.3450 ha         1 BIQ       0.136000
     80 H43          4.1510    -0.6900     1.4420 ha         1 BIQ       0.119000
     81 H45         -5.9960     3.7430    -0.5870 ha         1 BIQ       0.111000
     82 H46         -8.0230     4.4650    -1.7850 ha         1 BIQ       0.116000
     83 H47        -10.1380     3.2090    -1.5130 ha         1 BIQ       0.115000
     84 H48        -10.2110     1.2300    -0.0290 ha         1 BIQ       0.116000
@<TRIPOS>BOND
     1     1     2 ar  
     2     1    48 ar  
     3     1    49 1   
     4     2     3 1   
     5     2    45 ar  
     6     3     4 1   
     7     3    50 1   
     8     3    51 1   
     9     4     5 1   
    10     5     6 1   
    11     5    44 2   
    12     6     7 1   
    13     6    52 1   
    14     7     8 1   
    15     7    41 1   
    16     7    53 1   
    17     8     9 2   
    18     8    10 1   
    19    10    11 1   
    20    10    54 1   
    21    11    12 1   
    22    11    16 1   
    23    11    55 1   
    24    12    13 1   
    25    12    56 1   
    26    12    57 1   
    27    13    14 1   
    28    13    15 2   
    29    14    58 1   
    30    14    59 1   
    31    16    17 2   
    32    16    18 1   
    33    18    19 1   
    34    18    60 1   
    35    19    20 1   
    36    19    26 1   
    37    19    61 1   
    38    20    21 2   
    39    20    22 1   
    40    22    23 1   
    41    22    62 1   
    42    23    24 1   
    43    23    63 1   
    44    23    64 1   
    45    24    25 1   
    46    24    65 1   
    47    24    66 1   
    48    25    67 1   
    49    25    68 1   
    50    25    69 1   
    51    26    27 1   
    52    26    70 1   
    53    26    71 1   
    54    27    28 ar  
    55    27    43 ar  
    56    28    29 ar  
    57    28    72 1   
    58    29    30 ar  
    59    29    73 1   
    60    30    31 1   
    61    30    42 ar  
    62    31    32 1   
    63    32    33 ar  
    64    32    37 ar  
    65    33    34 ar  
    66    33    74 1   
    67    34    35 ar  
    68    34    41 1   
    69    35    36 ar  
    70    35    75 1   
    71    36    37 ar  
    72    36    76 1   
    73    37    38 1   
    74    38    39 1   
    75    38    40 1   
    76    41    77 1   
    77    41    78 1   
    78    42    43 ar  
    79    42    79 1   
    80    43    80 1   
    81    45    46 ar  
    82    45    81 1   
    83    46    47 ar  
    84    46    82 1   
    85    47    48 ar  
    86    47    83 1   
    87    48    84 1   
@<TRIPOS>SUBSTRUCTURE
     1 BIQ         1 TEMP              0 ****  ****    0 ROOT
