@<TRIPOS>MOLECULE
BIQ
   84    87     1     0     0
SMALL
No Charge or Current Charge


@<TRIPOS>ATOM
      1 C1          -8.6890     1.1590     0.9810 ca         1 BIQ      -0.082500
      2 C2          -7.6830     1.8780     0.3030 ca         1 BIQ      -0.104300
      3 C3          -6.2440     1.8370     0.7990 c3         1 BIQ       0.233900
      4 O4          -5.5750     0.7410     0.1540 os         1 BIQ      -0.447100
      5 C5          -4.2690     0.5360     0.4650 c          1 BIQ       0.644100
      6 N6          -3.8070    -0.5390    -0.2370 ns         1 BIQ      -0.497900
      7 C7          -2.4290    -1.0650    -0.1400 c3         1 BIQ       0.050700
      8 C8          -1.4580    -0.0760    -0.8450 c          1 BIQ       0.584100
      9 O9          -1.5360     0.1950    -2.0360 o          1 BIQ      -0.592100
     10 N10         -0.4880     0.4850    -0.0400 ns         1 BIQ      -0.485900
     11 C11          0.4530     1.5550    -0.4520 c3         1 BIQ       0.045700
     12 C12         -0.1880     2.9600    -0.2700 c3         1 BIQ      -0.183400
     13 C13         -1.2690     3.2640    -1.3040 c          1 BIQ       0.605100
     14 N14         -2.5470     3.1590    -0.8860 nt         1 BIQ      -0.608000
     15 O15         -1.0150     3.6250    -2.4400 o          1 BIQ      -0.593100
     16 C16          1.7760     1.4440     0.3560 c          1 BIQ       0.593100
     17 O17          1.8570     0.8290     1.4130 o          1 BIQ      -0.604100
     18 N18          2.8570     2.1030    -0.1970 ns         1 BIQ      -0.483900
     19 C19          4.2430     2.0640     0.3320 c3         1 BIQ       0.028700
     20 C20          4.8870     3.4790     0.2860 c          1 BIQ       0.584100
     21 O21          4.3910     4.4230    -0.3170 o          1 BIQ      -0.605100
     22 N22          6.0720     3.6070     0.9800 ns         1 BIQ      -0.502900
     23 C23          6.8470     4.8450     1.0630 c3         1 BIQ       0.102000
     24 C24          8.1700     4.6340     1.8240 c3         1 BIQ      -0.095400
     25 C25          9.0130     5.9200     1.9280 c3         1 BIQ      -0.088100
     26 C26          5.1010     1.0250    -0.4420 c3         1 BIQ      -0.042100
     27 C27          4.4250    -0.3360    -0.5670 ca         1 BIQ      -0.088300
     28 C28          4.0350    -0.8280    -1.8300 ca         1 BIQ      -0.088500
     29 C29          3.3550    -2.0550    -1.9330 ca         1 BIQ      -0.111000
     30 C30          3.0510    -2.7850    -0.7740 ca         1 BIQ       0.098100
     31 O31          2.3500    -3.9590    -0.8730 os         1 BIQ      -0.241200
     32 C32          1.1090    -4.0780    -0.2940 ca         1 BIQ       0.180100
     33 C33          0.0770    -3.2240    -0.7280 ca         1 BIQ      -0.150000
     34 C34         -1.2230    -3.3480    -0.2060 ca         1 BIQ      -0.024300
     35 C35         -1.4770    -4.3260     0.7720 ca         1 BIQ      -0.130000
     36 C36         -0.4550    -5.1850     1.2080 ca         1 BIQ      -0.039000
     37 C37          0.8480    -5.0740     0.6730 ca         1 BIQ      -0.192200
     38 N38          1.9080    -6.0190     1.1250 no         1 BIQ       0.702200
     39 O39          1.5560    -7.1610     1.4500 o          1 BIQ      -0.391000
     40 O40          3.0520    -5.5830     1.3020 o          1 BIQ      -0.391000
     41 C41         -2.3650    -2.4920    -0.7420 c3         1 BIQ      -0.042100
     42 C42          3.4510    -2.3090     0.4850 ca         1 BIQ      -0.111000
     43 C43          4.1480    -1.0940     0.5870 ca         1 BIQ      -0.088500
     44 O44         -3.6010     1.2050     1.2360 o          1 BIQ      -0.559000
     45 C45         -8.0220     2.6320    -0.8380 ca         1 BIQ      -0.082500
     46 C46         -9.3510     2.6700    -1.2940 ca         1 BIQ      -0.113500
     47 C47        -10.3500     1.9540    -0.6130 ca         1 BIQ      -0.094000
     48 C48        -10.0180     1.1980     0.5240 ca         1 BIQ      -0.113500
     49 H1          -8.4400     0.5690     1.8610 ha         1 BIQ       0.111000
     50 H31         -6.2340     1.7110     1.8900 h1         1 BIQ       0.054200
     51 H32         -5.7480     2.7880     0.5640 h1         1 BIQ       0.054200
     52 HN6         -4.4720    -0.9780    -0.8610 hn         1 BIQ       0.341500
     53 H7          -2.1620    -1.1200     0.9240 h1         1 BIQ       0.092700
     54 HN10        -0.4600     0.1800     0.9280 hn         1 BIQ       0.343500
     55 H11          0.7210     1.4100    -1.5080 h1         1 BIQ       0.111700
     56 H121        -0.6130     3.0090     0.7400 hc         1 BIQ       0.076200
     57 H122         0.5930     3.7210    -0.3780 hc         1 BIQ       0.076200
     58 H141        -2.7490     2.8260     0.0470 hn         1 BIQ       0.313500
     59 H142        -3.2940     3.3540    -1.5350 hn         1 BIQ       0.313500
     60 HN18         2.6880     2.6310    -1.0460 hn         1 BIQ       0.337500
     61 H19          4.2090     1.7730     1.3890 h1         1 BIQ       0.090700
     62 HN22         6.4190     2.7850     1.4600 hn         1 BIQ       0.316500
     63 H231         6.2440     5.6070     1.5740 h1         1 BIQ       0.053200
     64 H232         7.0610     5.1990     0.0450 h1         1 BIQ       0.053200
     65 H241         8.7600     3.8600     1.3180 hc         1 BIQ       0.043700
     66 H242         7.9530     4.2670     2.8350 hc         1 BIQ       0.043700
     67 H251         9.2750     6.2940     0.9300 hc         1 BIQ       0.038367
     68 H252         8.4610     6.7040     2.4590 hc         1 BIQ       0.038367
     69 H253         9.9430     5.7240     2.4750 hc         1 BIQ       0.038367
     70 H261         5.3240     1.4270    -1.4380 hc         1 BIQ       0.061200
     71 H262         6.0700     0.9090     0.0590 hc         1 BIQ       0.061200
     72 H28          4.2430    -0.2550    -2.7310 ha         1 BIQ       0.119000
     73 H29          3.0460    -2.4280    -2.9070 ha         1 BIQ       0.136000
     74 H33          0.2860    -2.4860    -1.4990 ha         1 BIQ       0.157000
     75 H35         -2.4780    -4.4390     1.1850 ha         1 BIQ       0.128000
     76 H36         -0.6830    -5.9410     1.9580 ha         1 BIQ       0.148000
     77 H411        -2.3130    -2.4290    -1.8370 hc         1 BIQ       0.074700
     78 H412        -3.3110    -3.0030    -0.5280 hc         1 BIQ       0.074700
     79 H42          3.2180    -2.8740     1.3830 ha         1 BIQ       0.136000
     80 H43          4.4430    -0.7270     1.5670 ha         1 BIQ       0.119000
     81 H45         -7.2540     3.1880    -1.3720 ha         1 BIQ       0.111000
     82 H46         -9.6060     3.2540    -2.1760 ha         1 BIQ       0.116000
     83 H47        -11.3780     1.9830    -0.9670 ha         1 BIQ       0.115000
     84 H48        -10.7900     0.6410     1.0510 ha         1 BIQ       0.116000
@<TRIPOS>BOND
     1     1     2 ar  
     2     1    48 ar  
     3     1    49 1   
     4     2     3 1   
     5     2    45 ar  
     6     3     4 1   
     7     3    50 1   
     8     3    51 1   
     9     4     5 1   
    10     5     6 1   
    11     5    44 2   
    12     6     7 1   
    13     6    52 1   
    14     7     8 1   
    15     7    41 1   
    16     7    53 1   
    17     8     9 2   
    18     8    10 1   
    19    10    11 1   
    20    10    54 1   
    21    11    12 1   
    22    11    16 1   
    23    11    55 1   
    24    12    13 1   
    25    12    56 1   
    26    12    57 1   
    27    13    14 1   
    28    13    15 2   
    29    14    58 1   
    30    14    59 1   
    31    16    17 2   
    32    16    18 1   
    33    18    19 1   
    34    18    60 1   
    35    19    20 1   
    36    19    26 1   
    37    19    61 1   
    38    20    21 2   
    39    20    22 1   
    40    22    23 1   
    41    22    62 1   
    42    23    24 1   
    43    23    63 1   
    44    23    64 1   
    45    24    25 1   
    46    24    65 1   
    47    24    66 1   
    48    25    67 1   
    49    25    68 1   
    50    25    69 1   
    51    26    27 1   
    52    26    70 1   
    53    26    71 1   
    54    27    28 ar  
    55    27    43 ar  
    56    28    29 ar  
    57    28    72 1   
    58    29    30 ar  
    59    29    73 1   
    60    30    31 1   
    61    30    42 ar  
    62    31    32 1   
    63    32    33 ar  
    64    32    37 ar  
    65    33    34 ar  
    66    33    74 1   
    67    34    35 ar  
    68    34    41 1   
    69    35    36 ar  
    70    35    75 1   
    71    36    37 ar  
    72    36    76 1   
    73    37    38 1   
    74    38    39 1   
    75    38    40 1   
    76    41    77 1   
    77    41    78 1   
    78    42    43 ar  
    79    42    79 1   
    80    43    80 1   
    81    45    46 ar  
    82    45    81 1   
    83    46    47 ar  
    84    46    82 1   
    85    47    48 ar  
    86    47    83 1   
    87    48    84 1   
@<TRIPOS>SUBSTRUCTURE
     1 BIQ         1 TEMP              0 ****  ****    0 ROOT
