@<TRIPOS>MOLECULE
BIR
   54    55     1     0     0
SMALL
No Charge or Current Charge


@<TRIPOS>ATOM
      1 C3           6.7940     2.1110     1.1680 c3         1 BIR      -0.090100
      2 C2           5.9490     1.1760     0.2690 c3         1 BIR      -0.193500
      3 N1           6.7490     0.8910    -0.9930 n8         1 BIR      -0.971200
      4 P4           4.1050     1.7310     0.2420 p5         1 BIR       1.407000
      5 O6           3.5640     1.8530     1.6330 o          1 BIR      -0.832000
      6 O5           3.9510     2.9930    -0.5520 o          1 BIR      -0.832000
      7 C7           3.2500     0.3430    -0.6270 c3         1 BIR      -0.420400
      8 C8           1.6990     0.2100    -0.4520 c3         1 BIR      -0.096700
      9 C10          1.1780    -1.1560    -0.9730 c          1 BIR       0.590100
     10 O23          1.2750    -1.5030    -2.1450 o          1 BIR      -0.681100
     11 N24          0.5930    -1.9580    -0.0160 ns         1 BIR      -0.467900
     12 C25          0.0350    -3.3120    -0.2450 c3         1 BIR      -0.036300
     13 C26          1.1530    -4.3710    -0.3750 c3         1 BIR      -0.074100
     14 C27         -0.9790    -3.6920     0.8810 c          1 BIR       0.714000
     15 O28         -2.0240    -4.2380     0.5570 o          1 BIR      -0.737000
     16 O29         -0.7370    -3.3400     2.0290 o          1 BIR      -0.737000
     17 C9           0.9100     1.3720    -1.1130 c3         1 BIR      -0.042100
     18 C11         -0.5840     1.2920    -0.8250 ca         1 BIR      -0.043300
     19 C12         -1.0880     1.7030     0.4220 ca         1 BIR      -0.105500
     20 C13         -2.4640     1.6200     0.6950 ca         1 BIR      -0.092500
     21 C14         -3.3760     1.1230    -0.2710 cp         1 BIR      -0.067000
     22 C15         -2.8500     0.7130    -1.5220 ca         1 BIR      -0.092500
     23 C16         -1.4740     0.7950    -1.7950 ca         1 BIR      -0.105500
     24 C17         -4.8430     1.0350     0.0200 cp         1 BIR       0.009000
     25 C18         -5.8080     1.2550    -0.9970 ca         1 BIR      -0.100500
     26 C19         -7.1840     1.1740    -0.7240 ca         1 BIR      -0.120500
     27 C20         -7.6270     0.8690     0.5730 ca         1 BIR      -0.135000
     28 C21         -6.6930     0.6460     1.5960 ca         1 BIR      -0.120500
     29 C22         -5.3160     0.7290     1.3220 ca         1 BIR      -0.100500
     30 H31          6.8560     3.1180     0.7360 hc         1 BIR       0.019033
     31 H32          6.3480     2.1960     2.1660 hc         1 BIR       0.019033
     32 H33          7.8130     1.7260     1.2930 hc         1 BIR       0.019033
     33 H2           5.8710     0.2200     0.8030 h1         1 BIR       0.054700
     34 HN11         6.8090     1.7400    -1.5710 hn         1 BIR       0.371000
     35 HN12         7.7280     0.6880    -0.7530 hn         1 BIR       0.371000
     36 H71          3.5090     0.4260    -1.6880 hc         1 BIR       0.056700
     37 H72          3.7330    -0.5630    -0.2470 hc         1 BIR       0.056700
     38 H8           1.4910     0.2490     0.6250 hc         1 BIR       0.069700
     39 H24          0.5450    -1.5850     0.9250 hn         1 BIR       0.341500
     40 H25         -0.5250    -3.2870    -1.1890 h1         1 BIR       0.040700
     41 H261         1.8270    -4.1300    -1.2060 hc         1 BIR       0.018700
     42 H262         1.7460    -4.4250     0.5460 hc         1 BIR       0.018700
     43 H263         0.7220    -5.3610    -0.5640 hc         1 BIR       0.018700
     44 H91          1.2910     2.3320    -0.7480 hc         1 BIR       0.068700
     45 H92          1.0940     1.3670    -2.1950 hc         1 BIR       0.068700
     46 H12         -0.4130     2.0900     1.1820 ha         1 BIR       0.122000
     47 H13         -2.8270     1.9580     1.6620 ha         1 BIR       0.097500
     48 H15         -3.5110     0.3110    -2.2850 ha         1 BIR       0.097500
     49 H16         -1.0990     0.4640    -2.7610 ha         1 BIR       0.122000
     50 H18         -5.4860     1.5060    -2.0040 ha         1 BIR       0.120500
     51 H19         -7.9070     1.3500    -1.5180 ha         1 BIR       0.095500
     52 H20         -8.6920     0.8060     0.7840 ha         1 BIR       0.090000
     53 H21         -7.0330     0.4070     2.6010 ha         1 BIR       0.095500
     54 H22         -4.6090     0.5390     2.1260 ha         1 BIR       0.120500
@<TRIPOS>BOND
     1     1     2 1   
     2     1    30 1   
     3     1    31 1   
     4     1    32 1   
     5     2     3 1   
     6     2     4 1   
     7     2    33 1   
     8     3    34 1   
     9     3    35 1   
    10     4     5 1   
    11     4     6 1   
    12     4     7 1   
    13     7     8 1   
    14     7    36 1   
    15     7    37 1   
    16     8     9 1   
    17     8    17 1   
    18     8    38 1   
    19     9    10 2   
    20     9    11 1   
    21    11    12 1   
    22    11    39 1   
    23    12    13 1   
    24    12    14 1   
    25    12    40 1   
    26    13    41 1   
    27    13    42 1   
    28    13    43 1   
    29    14    15 1   
    30    14    16 1   
    31    17    18 1   
    32    17    44 1   
    33    17    45 1   
    34    18    19 ar  
    35    18    23 ar  
    36    19    20 ar  
    37    19    46 1   
    38    20    21 ar  
    39    20    47 1   
    40    21    22 ar  
    41    21    24 1   
    42    22    23 ar  
    43    22    48 1   
    44    23    49 1   
    45    24    25 ar  
    46    24    29 ar  
    47    25    26 ar  
    48    25    50 1   
    49    26    27 ar  
    50    26    51 1   
    51    27    28 ar  
    52    27    52 1   
    53    28    29 ar  
    54    28    53 1   
    55    29    54 1   
@<TRIPOS>SUBSTRUCTURE
     1 BIR         1 TEMP              0 ****  ****    0 ROOT
