@<TRIPOS>MOLECULE
BIR
   54    55     1     0     0
SMALL
abcg2


@<TRIPOS>ATOM
      1 C3           6.8100     2.0970     1.0370 c3         1 BIR      -0.090100
      2 C2           5.9470     1.2000     0.1500 c3         1 BIR      -0.193500
      3 N1           6.2190     1.3350    -1.2760 n8         1 BIR      -0.971200
      4 P4           4.1550     1.5480     0.4520 p5         1 BIR       1.407000
      5 O6           3.8600     1.3340     1.9250 o          1 BIR      -0.832000
      6 O5           3.8470     2.9030    -0.1640 o          1 BIR      -0.832000
      7 C7           3.3200     0.2050    -0.4960 c3         1 BIR      -0.420400
      8 C8           1.8100     0.1530    -0.2570 c3         1 BIR      -0.096700
      9 C10          1.2320    -1.1530    -0.7790 c          1 BIR       0.590100
     10 O23          1.3940    -1.4990    -1.9460 o          1 BIR      -0.681100
     11 N24          0.5350    -1.8650     0.1090 ns         1 BIR      -0.467900
     12 C25         -0.2470    -3.0370    -0.2130 c3         1 BIR      -0.036300
     13 C26          0.6270    -4.2790    -0.3880 c3         1 BIR      -0.074100
     14 C27         -1.2880    -3.2800     0.9050 c          1 BIR       0.714000
     15 O28         -2.1520    -4.1390     0.6520 o          1 BIR      -0.737000
     16 O29         -1.1570    -2.6300     1.9600 o          1 BIR      -0.737000
     17 C9           1.0720     1.3170    -0.9430 c3         1 BIR      -0.042100
     18 C11         -0.4130     1.2510    -0.7300 ca         1 BIR      -0.043300
     19 C12         -0.9830     1.6820     0.4660 ca         1 BIR      -0.105500
     20 C13         -2.3450     1.5740     0.6910 ca         1 BIR      -0.092500
     21 C14         -3.1920     1.0300    -0.2760 cp         1 BIR      -0.067000
     22 C15         -2.6230     0.6040    -1.4750 ca         1 BIR      -0.092500
     23 C16         -1.2590     0.7130    -1.6960 ca         1 BIR      -0.105500
     24 C17         -4.6450     0.9150    -0.0380 cp         1 BIR       0.009000
     25 C18         -5.5600     1.1200    -1.0720 ca         1 BIR      -0.100500
     26 C19         -6.9250     1.0150    -0.8470 ca         1 BIR      -0.120500
     27 C20         -7.4040     0.7030     0.4190 ca         1 BIR      -0.135000
     28 C21         -6.5040     0.4950     1.4560 ca         1 BIR      -0.120500
     29 C22         -5.1390     0.5990     1.2290 ca         1 BIR      -0.100500
     30 H31          6.6180     3.1510     0.8260 hc         1 BIR       0.019033
     31 H32          6.6160     1.9270     2.0970 hc         1 BIR       0.019033
     32 H33          7.8720     1.9110     0.8580 hc         1 BIR       0.019033
     33 H2           6.1310     0.1570     0.4300 h1         1 BIR       0.054700
     34 HN11         5.9850     2.2780    -1.5640 hn         1 BIR       0.371000
     35 HN12         7.2130     1.2310    -1.4440 hn         1 BIR       0.371000
     36 H71          3.5370     0.3040    -1.5620 hc         1 BIR       0.056700
     37 H72          3.7700    -0.7400    -0.1720 hc         1 BIR       0.056700
     38 H8           1.6300     0.2210     0.8220 hc         1 BIR       0.069700
     39 H24          0.3480    -1.4830     1.0260 hn         1 BIR       0.341500
     40 H25         -0.7870    -2.8550    -1.1480 h1         1 BIR       0.040700
     41 H261         1.3730    -4.1250    -1.1670 hc         1 BIR       0.018700
     42 H262         1.1490    -4.5210     0.5390 hc         1 BIR       0.018700
     43 H263         0.0180    -5.1360    -0.6700 hc         1 BIR       0.018700
     44 H91          1.4740     2.2530    -0.5560 hc         1 BIR       0.068700
     45 H92          1.3000     1.2950    -2.0110 hc         1 BIR       0.068700
     46 H12         -0.3540     2.1190     1.2330 ha         1 BIR       0.122000
     47 H13         -2.7560     1.9400     1.6240 ha         1 BIR       0.097500
     48 H15         -3.2460     0.1610    -2.2430 ha         1 BIR       0.097500
     49 H16         -0.8430     0.3580    -2.6310 ha         1 BIR       0.122000
     50 H18         -5.2050     1.3870    -2.0600 ha         1 BIR       0.120500
     51 H19         -7.6170     1.1850    -1.6620 ha         1 BIR       0.095500
     52 H20         -8.4680     0.6230     0.5950 ha         1 BIR       0.090000
     53 H21         -6.8640     0.2430     2.4450 ha         1 BIR       0.095500
     54 H22         -4.4500     0.4130     2.0440 ha         1 BIR       0.120500
@<TRIPOS>BOND
     1     1     2 1   
     2     1    30 1   
     3     1    31 1   
     4     1    32 1   
     5     2     3 1   
     6     2     4 1   
     7     2    33 1   
     8     3    34 1   
     9     3    35 1   
    10     4     5 1   
    11     4     6 1   
    12     4     7 1   
    13     7     8 1   
    14     7    36 1   
    15     7    37 1   
    16     8     9 1   
    17     8    17 1   
    18     8    38 1   
    19     9    10 2   
    20     9    11 1   
    21    11    12 1   
    22    11    39 1   
    23    12    13 1   
    24    12    14 1   
    25    12    40 1   
    26    13    41 1   
    27    13    42 1   
    28    13    43 1   
    29    14    15 1   
    30    14    16 1   
    31    17    18 1   
    32    17    44 1   
    33    17    45 1   
    34    18    19 ar  
    35    18    23 ar  
    36    19    20 ar  
    37    19    46 1   
    38    20    21 ar  
    39    20    47 1   
    40    21    22 ar  
    41    21    24 1   
    42    22    23 ar  
    43    22    48 1   
    44    23    49 1   
    45    24    25 ar  
    46    24    29 ar  
    47    25    26 ar  
    48    25    50 1   
    49    26    27 ar  
    50    26    51 1   
    51    27    28 ar  
    52    27    52 1   
    53    28    29 ar  
    54    28    53 1   
    55    29    54 1   
@<TRIPOS>SUBSTRUCTURE
     1 BIR         1 TEMP              0 ****  ****    0 ROOT
