@<TRIPOS>MOLECULE
BIS
   57    59     1     0     0
SMALL
No Charge or Current Charge


@<TRIPOS>ATOM
      1 PB          -3.0460     0.8250    -1.4380 p5         1 BIS       1.483400
      2 O2B         -3.3660     0.0050    -2.6540 o          1 BIS      -0.840000
      3 O3B         -3.7900     2.1260    -1.4070 o          1 BIS      -0.840000
      4 PA          -4.5990    -0.0480     0.4790 p5         1 BIS       1.462800
      5 O1A         -4.9100     1.1440     1.3260 o          1 BIS      -0.857500
      6 O2A         -5.6610    -0.3070    -0.5430 o          1 BIS      -0.857500
      7 O3A         -3.1400    -0.0340    -0.1120 os         1 BIS      -0.690800
      8 O5          -4.4620    -1.3720     1.3950 os         1 BIS      -0.548400
      9 C5          -3.9020    -1.3380     2.7200 c3         1 BIS       0.234600
     10 C4          -2.3720    -1.6160     2.6880 c5         1 BIS       0.158300
     11 O4          -1.6280    -0.4290     2.3440 os         1 BIS      -0.381000
     12 C3          -1.7660    -1.9730     4.0820 c5         1 BIS       0.075300
     13 O3          -2.0610    -3.3140     4.5320 oh         1 BIS      -0.700000
     14 C2          -0.2480    -1.8210     3.7690 c5         1 BIS       0.087300
     15 O2           0.2160    -3.0640     3.2250 oh         1 BIS      -0.702000
     16 C1          -0.2500    -0.6390     2.7240 c5         1 BIS       0.315300
     17 N9           0.2970     0.6350     3.1800 na         1 BIS      -0.292300
     18 C8          -0.1700     1.3670     4.2760 cc         1 BIS       0.461700
     19 N7           0.5930     2.4570     4.5020 nd         1 BIS      -0.582100
     20 C7           1.5790     2.3680     3.5130 ca         1 BIS      -0.081600
     21 C6           2.6780     3.2170     3.2590 ca         1 BIS       0.436900
     22 N6           2.9360     4.3340     3.9930 nv         1 BIS      -1.078900
     23 N1           3.5500     2.9500     2.2740 nb         1 BIS      -0.331000
     24 C10          3.3030     1.8300     1.5490 ca         1 BIS       0.151900
     25 N3           2.2750     0.9630     1.7190 nb         1 BIS      -0.202000
     26 C9           1.4150     1.2640     2.7120 ca         1 BIS       0.104500
     27 C11         -1.1820     1.1900    -1.4210 c3         1 BIS      -0.154000
     28 F11         -0.8900     1.9620    -2.5030 f          1 BIS      -0.161000
     29 F12         -0.8640     1.9290    -0.3240 f          1 BIS      -0.161000
     30 C12         -0.3000    -0.0920    -1.4480 c3         1 BIS      -0.108400
     31 C13          1.2110     0.1500    -1.7050 c3         1 BIS      -0.067400
     32 C14          2.0380    -1.1640    -1.6970 c3         1 BIS      -0.114400
     33 C15          3.5070    -1.0240    -2.1940 c3         1 BIS      -0.117000
     34 F51          3.4960    -0.6330    -3.4970 f          1 BIS      -0.184500
     35 F52          4.1250    -0.0320    -1.4990 f          1 BIS      -0.184500
     36 PN           4.5110    -2.6350    -2.0270 p5         1 BIS       1.303500
     37 ON1          4.5620    -3.0520    -0.5930 o          1 BIS      -0.926167
     38 ON2          3.8660    -3.7180    -2.8320 o          1 BIS      -0.926167
     39 ON3          5.9050    -2.4180    -2.5250 o          1 BIS      -0.926167
     40 H5'1        -4.3830    -2.1180     3.3280 h1         1 BIS       0.010200
     41 H5'2        -4.0930    -0.3780     3.2210 h1         1 BIS       0.010200
     42 H4          -2.1650    -2.4070     1.9510 h1         1 BIS       0.091700
     43 H3          -2.0770    -1.2340     4.8380 h1         1 BIS       0.049700
     44 HO'3        -2.9000    -3.2810     5.0530 ho         1 BIS       0.487000
     45 H2           0.3220    -1.5620     4.6730 h1         1 BIS       0.044700
     46 HO'2        -0.4360    -3.7120     3.6030 ho         1 BIS       0.510000
     47 H1           0.3370    -0.9330     1.8430 h2         1 BIS       0.121700
     48 H8          -1.0450     1.0680     4.8430 h5         1 BIS       0.114800
     49 HN61         3.8710     4.7300     3.9500 hn         1 BIS       0.494500
     50 HN62         2.4240     4.4470     4.8650 hn         1 BIS       0.494500
     51 H6           4.0050     1.6040     0.7480 h5         1 BIS       0.024100
     52 H121        -0.4250    -0.6290    -0.4990 hc         1 BIS       0.059700
     53 H122        -0.6770    -0.7570    -2.2340 hc         1 BIS       0.059700
     54 H131         1.3350     0.6490    -2.6740 hc         1 BIS       0.028200
     55 H132         1.6070     0.8340    -0.9460 hc         1 BIS       0.028200
     56 H141         2.0420    -1.5710    -0.6780 hc         1 BIS       0.056700
     57 H142         1.5310    -1.9060    -2.3260 hc         1 BIS       0.056700
@<TRIPOS>BOND
     1     1     2 1   
     2     1     3 1   
     3     1     7 1   
     4     1    27 1   
     5     4     5 1   
     6     4     6 1   
     7     4     7 1   
     8     4     8 1   
     9     8     9 1   
    10     9    10 1   
    11     9    40 1   
    12     9    41 1   
    13    10    11 1   
    14    10    12 1   
    15    10    42 1   
    16    11    16 1   
    17    12    13 1   
    18    12    14 1   
    19    12    43 1   
    20    13    44 1   
    21    14    15 1   
    22    14    16 1   
    23    14    45 1   
    24    15    46 1   
    25    16    17 1   
    26    16    47 1   
    27    17    18 1   
    28    17    26 1   
    29    18    19 2   
    30    18    48 1   
    31    19    20 1   
    32    20    21 ar  
    33    20    26 ar  
    34    21    22 1   
    35    21    23 ar  
    36    22    49 1   
    37    22    50 1   
    38    23    24 ar  
    39    24    25 ar  
    40    24    51 1   
    41    25    26 ar  
    42    27    28 1   
    43    27    29 1   
    44    27    30 1   
    45    30    31 1   
    46    30    52 1   
    47    30    53 1   
    48    31    32 1   
    49    31    54 1   
    50    31    55 1   
    51    32    33 1   
    52    32    56 1   
    53    32    57 1   
    54    33    34 1   
    55    33    35 1   
    56    33    36 1   
    57    36    37 1   
    58    36    38 1   
    59    36    39 1   
@<TRIPOS>SUBSTRUCTURE
     1 BIS         1 TEMP              0 ****  ****    0 ROOT
