@<TRIPOS>MOLECULE
BIS
   57    59     1     0     0
SMALL
abcg2


@<TRIPOS>ATOM
      1 PB          -3.6470     0.3820    -2.3930 p5         1 BIS       1.483400
      2 O2B         -3.8700    -0.9270    -3.0860 o          1 BIS      -0.840000
      3 O3B         -4.7230     1.4210    -2.3140 o          1 BIS      -0.840000
      4 PA          -3.8470     0.2030     0.5010 p5         1 BIS       1.462800
      5 O1A         -3.8450     1.5990     1.0370 o          1 BIS      -0.857500
      6 O2A         -5.1250    -0.5650     0.3740 o          1 BIS      -0.857500
      7 O3A         -3.0000     0.1100    -0.9030 os         1 BIS      -0.690800
      8 O5          -2.7450    -0.6960     1.3390 os         1 BIS      -0.548400
      9 C5          -2.8010    -0.6390     2.7450 c3         1 BIS       0.234600
     10 C4          -1.8690    -1.6760     3.3200 c5         1 BIS       0.158300
     11 O4          -0.5190    -1.4000     2.9450 os         1 BIS      -0.381000
     12 C3          -1.8550    -1.6860     4.8470 c5         1 BIS       0.075300
     13 O3          -2.8900    -2.4900     5.3380 oh         1 BIS      -0.700000
     14 C2          -0.4540    -2.2330     5.1440 c5         1 BIS       0.087300
     15 O2          -0.4100    -3.6220     4.9730 oh         1 BIS      -0.702000
     16 C1           0.3550    -1.5990     4.0130 c5         1 BIS       0.315300
     17 N9           0.9230    -0.3160     4.4130 na         1 BIS      -0.292300
     18 C8           0.4900     0.9470     4.1180 cc         1 BIS       0.461700
     19 N7           1.2360     1.8810     4.6340 nd         1 BIS      -0.582100
     20 C7           2.2180     1.2020     5.3050 ca         1 BIS      -0.081600
     21 C6           3.3300     1.6170     6.0610 ca         1 BIS       0.436900
     22 N6           3.6290     2.9010     6.2590 nv         1 BIS      -1.078900
     23 N1           4.1170     0.6710     6.5870 nb         1 BIS      -0.331000
     24 C10          3.8230    -0.6100     6.3800 ca         1 BIS       0.151900
     25 N3           2.8130    -1.1200     5.6980 nb         1 BIS      -0.202000
     26 C9           2.0410    -0.1670     5.1780 ca         1 BIS       0.104500
     27 C11         -2.1330     1.1550    -3.1570 c3         1 BIS      -0.154000
     28 F11         -2.5180     1.5700    -4.4170 f          1 BIS      -0.161000
     29 F12         -1.8250     2.3140    -2.4850 f          1 BIS      -0.161000
     30 C12         -0.9070     0.2840    -3.2690 c3         1 BIS      -0.108400
     31 C13          0.2750     0.9450    -3.9730 c3         1 BIS      -0.067400
     32 C14          1.4500    -0.0230    -4.0720 c3         1 BIS      -0.114400
     33 C15          2.6830     0.5280    -4.7490 c3         1 BIS      -0.117000
     34 F51          2.3220     0.9970    -6.0060 f          1 BIS      -0.184500
     35 F52          3.0790     1.6750    -4.0730 f          1 BIS      -0.184500
     36 PN           4.1330    -0.6600    -4.9070 p5         1 BIS       1.303500
     37 ON1          4.4310    -1.0330    -3.4550 o          1 BIS      -0.926167
     38 ON2          3.5540    -1.7920    -5.7550 o          1 BIS      -0.926167
     39 ON3          5.2220     0.1620    -5.5930 o          1 BIS      -0.926167
     40 H5'1        -3.8070    -0.8570     3.1250 h1         1 BIS       0.010200
     41 H5'2        -2.5260     0.3570     3.1130 h1         1 BIS       0.010200
     42 H4          -2.1530    -2.6670     2.9460 h1         1 BIS       0.091700
     43 H3          -1.9310    -0.6580     5.2250 h1         1 BIS       0.049700
     44 HO'3        -3.0570    -2.2560     6.2560 ho         1 BIS       0.487000
     45 H2          -0.0840    -1.9310     6.1310 h1         1 BIS       0.044700
     46 HO'2        -1.2370    -3.9870     5.3140 ho         1 BIS       0.510000
     47 H1           1.1920    -2.2360     3.7150 h2         1 BIS       0.121700
     48 H8          -0.3780     1.1260     3.5040 h5         1 BIS       0.114800
     49 HN61         4.4060     3.1550     6.8450 hn         1 BIS       0.494500
     50 HN62         3.0180     3.6310     5.9360 hn         1 BIS       0.494500
     51 H6           4.5030    -1.3230     6.8330 h5         1 BIS       0.024100
     52 H121        -0.6170    -0.0250    -2.2620 hc         1 BIS       0.059700
     53 H122        -1.1950    -0.6290    -3.7940 hc         1 BIS       0.059700
     54 H131        -0.0240     1.2650    -4.9730 hc         1 BIS       0.028200
     55 H132         0.5770     1.8410    -3.4270 hc         1 BIS       0.028200
     56 H141         1.7480    -0.3590    -3.0760 hc         1 BIS       0.056700
     57 H142         1.1530    -0.9230    -4.6160 hc         1 BIS       0.056700
@<TRIPOS>BOND
     1     1     2 1   
     2     1     3 1   
     3     1     7 1   
     4     1    27 1   
     5     4     5 1   
     6     4     6 1   
     7     4     7 1   
     8     4     8 1   
     9     8     9 1   
    10     9    10 1   
    11     9    40 1   
    12     9    41 1   
    13    10    11 1   
    14    10    12 1   
    15    10    42 1   
    16    11    16 1   
    17    12    13 1   
    18    12    14 1   
    19    12    43 1   
    20    13    44 1   
    21    14    15 1   
    22    14    16 1   
    23    14    45 1   
    24    15    46 1   
    25    16    17 1   
    26    16    47 1   
    27    17    18 1   
    28    17    26 1   
    29    18    19 2   
    30    18    48 1   
    31    19    20 1   
    32    20    21 ar  
    33    20    26 ar  
    34    21    22 1   
    35    21    23 ar  
    36    22    49 1   
    37    22    50 1   
    38    23    24 ar  
    39    24    25 ar  
    40    24    51 1   
    41    25    26 ar  
    42    27    28 1   
    43    27    29 1   
    44    27    30 1   
    45    30    31 1   
    46    30    52 1   
    47    30    53 1   
    48    31    32 1   
    49    31    54 1   
    50    31    55 1   
    51    32    33 1   
    52    32    56 1   
    53    32    57 1   
    54    33    34 1   
    55    33    35 1   
    56    33    36 1   
    57    36    37 1   
    58    36    38 1   
    59    36    39 1   
@<TRIPOS>SUBSTRUCTURE
     1 BIS         1 TEMP              0 ****  ****    0 ROOT
