@<TRIPOS>MOLECULE
BIT
   38    41     1     0     0
SMALL
bcc


@<TRIPOS>ATOM
      1 O2           2.3450    -2.4890    -0.8050 o          1 BIT      -0.490100
      2 C4           1.7420    -1.5400    -0.3540 c          1 BIT       0.577700
      3 C5           2.3200    -0.2090    -0.1380 ca         1 BIT      -0.239600
      4 C6           3.7030    -0.0180    -0.1730 ca         1 BIT      -0.052000
      5 C7           4.2690     1.2250     0.0490 ca         1 BIT      -0.103300
      6 C18          5.7540     1.4320     0.0340 c3         1 BIT      -0.043800
      7 C8           3.4000     2.2960     0.2930 ca         1 BIT      -0.088000
      8 C10          1.4540     0.8760     0.0990 ca         1 BIT       0.197400
      9 C9           2.0290     2.1310     0.3110 ca         1 BIT      -0.128000
     10 C3           0.3160    -1.6730     0.1550 c5         1 BIT      -0.030500
     11 C11         -0.4530    -0.3750     0.0170 c2         1 BIT       0.635200
     12 N2           0.0670     0.7950     0.0700 ne         1 BIT      -0.657100
     13 O1           0.3910    -2.0250     1.5250 oh         1 BIT      -0.571800
     14 C2          -0.5860    -2.6630    -0.5430 c5         1 BIT      -0.073400
     15 C1          -1.9720    -2.1260    -0.2120 c5         1 BIT       0.218800
     16 N1          -1.7650    -0.6760    -0.1190 nh         1 BIT      -0.606000
     17 C12         -2.8530     0.2070    -0.1070 ca         1 BIT       0.163600
     18 C13         -4.1340    -0.3070     0.1190 ca         1 BIT      -0.159000
     19 C14         -5.2390     0.5300     0.1230 ca         1 BIT      -0.106500
     20 C15         -5.0950     1.8920    -0.0980 ca         1 BIT      -0.149000
     21 C16         -3.8250     2.4040    -0.3240 ca         1 BIT      -0.106500
     22 C17         -2.7090     1.5800    -0.3320 ca         1 BIT      -0.159000
     23 H6           4.3430    -0.8720    -0.3650 ha         1 BIT       0.147000
     24 H181         6.1200     1.7530     1.0110 hc         1 BIT       0.044367
     25 H182         6.2810     0.5160    -0.2320 hc         1 BIT       0.044367
     26 H183         6.0400     2.2020    -0.6840 hc         1 BIT       0.044367
     27 H8           3.8110     3.2830     0.4690 ha         1 BIT       0.133000
     28 H9           1.3770     2.9790     0.4820 ha         1 BIT       0.149000
     29 HO1          0.7790    -1.3050     2.0380 ho         1 BIT       0.423000
     30 H21         -0.4350    -3.6870    -0.2060 hc         1 BIT       0.082200
     31 H22         -0.4180    -2.6270    -1.6200 hc         1 BIT       0.082200
     32 H11         -2.3500    -2.5260     0.7310 h1         1 BIT       0.062700
     33 H12         -2.6980    -2.3490    -0.9930 h1         1 BIT       0.062700
     34 H13         -4.2860    -1.3610     0.3040 ha         1 BIT       0.149500
     35 H14         -6.2180     0.1070     0.3050 ha         1 BIT       0.131000
     36 H15         -5.9580     2.5440    -0.0970 ha         1 BIT       0.133000
     37 H16         -3.6920     3.4630    -0.5020 ha         1 BIT       0.131000
     38 H17         -1.7350     2.0040    -0.5110 ha         1 BIT       0.149500
@<TRIPOS>BOND
     1     1     2 2   
     2     2     3 1   
     3     2    10 1   
     4     3     4 ar  
     5     3     8 ar  
     6     4     5 ar  
     7     4    23 1   
     8     5     6 1   
     9     5     7 ar  
    10     6    24 1   
    11     6    25 1   
    12     6    26 1   
    13     7     9 ar  
    14     7    27 1   
    15     8     9 ar  
    16     8    12 1   
    17     9    28 1   
    18    10    11 1   
    19    10    13 1   
    20    10    14 1   
    21    11    12 2   
    22    11    16 1   
    23    13    29 1   
    24    14    15 1   
    25    14    30 1   
    26    14    31 1   
    27    15    16 1   
    28    15    32 1   
    29    15    33 1   
    30    16    17 1   
    31    17    18 ar  
    32    17    22 ar  
    33    18    19 ar  
    34    18    34 1   
    35    19    20 ar  
    36    19    35 1   
    37    20    21 ar  
    38    20    36 1   
    39    21    22 ar  
    40    21    37 1   
    41    22    38 1   
@<TRIPOS>SUBSTRUCTURE
     1 BIT         1 TEMP              0 ****  ****    0 ROOT
