@<TRIPOS>MOLECULE
BIT
   38    41     1     0     0
SMALL
No Charge or Current Charge


@<TRIPOS>ATOM
      1 O2           2.2300    -2.1900    -1.4670 o          1 BIT      -0.490100
      2 C4           1.6740    -1.4620    -0.6510 c          1 BIT       0.577700
      3 C5           2.2610    -0.1530    -0.1900 ca         1 BIT      -0.239600
      4 C6           3.6590     0.0440    -0.2020 ca         1 BIT      -0.034000
      5 C7           4.2110     1.2670     0.2250 ca         1 BIT      -0.103300
      6 C18          5.7190     1.4700     0.2150 c3         1 BIT      -0.043800
      7 C8           3.3580     2.3020     0.6510 ca         1 BIT      -0.070000
      8 C10          1.4170     0.8920     0.2330 ca         1 BIT       0.197400
      9 C9           1.9660     2.1140     0.6480 ca         1 BIT      -0.110000
     10 C3           0.3220    -1.7360     0.0750 c5         1 BIT      -0.007300
     11 C11         -0.4850    -0.4450     0.0390 c2         1 BIT       0.635200
     12 N2           0.0260     0.7320     0.1810 ne         1 BIT      -0.657100
     13 O1           0.5530    -2.2500     1.4230 oh         1 BIT      -0.634000
     14 C2          -0.5840    -2.7050    -0.7410 c5         1 BIT      -0.073400
     15 C1          -1.9880    -2.2350    -0.2680 c5         1 BIT       0.218800
     16 N1          -1.8010    -0.7620    -0.2300 nh         1 BIT      -0.744400
     17 C12         -2.8600     0.1660    -0.1840 ca         1 BIT       0.302000
     18 C13         -3.9890    -0.0840     0.6200 ca         1 BIT      -0.141000
     19 C14         -5.0580     0.8290     0.6570 ca         1 BIT      -0.088500
     20 C15         -5.0080     1.9990    -0.1190 ca         1 BIT      -0.131000
     21 C16         -3.8910     2.2530    -0.9320 ca         1 BIT      -0.088500
     22 C17         -2.8250     1.3370    -0.9640 ca         1 BIT      -0.141000
     23 H6           4.3180    -0.7550    -0.5370 ha         1 BIT       0.129000
     24 H181         6.0300     2.2020     0.9710 hc         1 BIT       0.044367
     25 H182         6.2500     0.5350     0.4270 hc         1 BIT       0.044367
     26 H183         6.0570     1.8340    -0.7620 hc         1 BIT       0.044367
     27 H8           3.7720     3.2550     0.9760 ha         1 BIT       0.115000
     28 H9           1.3100     2.9220     0.9630 ha         1 BIT       0.131000
     29 HO1          0.9590    -1.5290     1.9580 ho         1 BIT       0.462000
     30 H21         -0.3940    -3.7640    -0.5320 hc         1 BIT       0.082200
     31 H22         -0.4770    -2.5550    -1.8220 hc         1 BIT       0.082200
     32 H11         -2.2100    -2.6310     0.7330 h1         1 BIT       0.062700
     33 H12         -2.7880    -2.5470    -0.9530 h1         1 BIT       0.062700
     34 H13         -4.0350    -0.9840     1.2250 ha         1 BIT       0.131500
     35 H14         -5.9240     0.6290     1.2850 ha         1 BIT       0.113000
     36 H15         -5.8340     2.7060    -0.0920 ha         1 BIT       0.115000
     37 H16         -3.8520     3.1570    -1.5370 ha         1 BIT       0.113000
     38 H17         -1.9680     1.5340    -1.6030 ha         1 BIT       0.131500
@<TRIPOS>BOND
     1     1     2 2   
     2     2     3 1   
     3     2    10 1   
     4     3     4 ar  
     5     3     8 ar  
     6     4     5 ar  
     7     4    23 1   
     8     5     6 1   
     9     5     7 ar  
    10     6    24 1   
    11     6    25 1   
    12     6    26 1   
    13     7     9 ar  
    14     7    27 1   
    15     8     9 ar  
    16     8    12 1   
    17     9    28 1   
    18    10    11 1   
    19    10    13 1   
    20    10    14 1   
    21    11    12 2   
    22    11    16 1   
    23    13    29 1   
    24    14    15 1   
    25    14    30 1   
    26    14    31 1   
    27    15    16 1   
    28    15    32 1   
    29    15    33 1   
    30    16    17 1   
    31    17    18 ar  
    32    17    22 ar  
    33    18    19 ar  
    34    18    34 1   
    35    19    20 ar  
    36    19    35 1   
    37    20    21 ar  
    38    20    36 1   
    39    21    22 ar  
    40    21    37 1   
    41    22    38 1   
@<TRIPOS>SUBSTRUCTURE
     1 BIT         1 TEMP              0 ****  ****    0 ROOT
