@<TRIPOS>MOLECULE
BIU
   21    20     1     0     0
SMALL
No Charge or Current Charge


@<TRIPOS>ATOM
      1 N           49.5160    27.0130    -4.9120 n8         1 BIU      -1.014200
      2 CA          48.1170    26.6590    -5.3490 c3         1 BIU       0.017500
      3 CB          47.3340    25.8640    -4.2400 c3         1 BIU      -0.039700
      4 CG2         45.8400    25.6730    -4.6250 c3         1 BIU      -0.074100
      5 CG1         47.9430    24.4610    -3.9020 c3         1 BIU      -0.063400
      6 CD1         49.2770    24.4240    -3.1150 c3         1 BIU       0.131600
      7 C           47.2810    27.8870    -5.9130 c          1 BIU       0.691000
      8 O           47.1500    28.8770    -5.2020 o          1 BIU      -0.732000
      9 Br          49.1280    25.2600    -1.3020 br         1 BIU      -0.342000
     10 HN          50.0070    27.4580    -5.6980 hn         1 BIU       0.385000
     11 HNA         49.4540    27.7700    -4.2210 hn         1 BIU       0.385000
     12 HA          48.2310    25.9700    -6.1980 h1         1 BIU       0.034700
     13 HB          47.3380    26.4710    -3.3270 hc         1 BIU       0.063700
     14 HG2         45.3100    25.0950    -3.8580 hc         1 BIU       0.027033
     15 HG2A        45.3190    26.6330    -4.7130 hc         1 BIU       0.027033
     16 HG2B        45.7480    25.1390    -5.5780 hc         1 BIU       0.027033
     17 HG1         47.2170    23.8900    -3.3110 hc         1 BIU       0.036200
     18 HG1A        48.0770    23.9000    -4.8350 hc         1 BIU       0.036200
     19 HD1         49.5720    23.3810    -2.9410 h1         1 BIU       0.066700
     20 HD1A        50.0930    24.9230    -3.6490 h1         1 BIU       0.066700
     21 OXT         46.9210    27.8570    -7.0820 o          1 BIU      -0.732000
@<TRIPOS>BOND
     1     1     2 1   
     2     1    10 1   
     3     1    11 1   
     4     2     3 1   
     5     2     7 1   
     6     2    12 1   
     7     3     4 1   
     8     3     5 1   
     9     3    13 1   
    10     4    14 1   
    11     4    15 1   
    12     4    16 1   
    13     5     6 1   
    14     5    17 1   
    15     5    18 1   
    16     6     9 1   
    17     6    19 1   
    18     6    20 1   
    19     7     8 1   
    20     7    21 1   
@<TRIPOS>SUBSTRUCTURE
     1 BIU         1 TEMP              0 ****  ****    0 ROOT
