@<TRIPOS>MOLECULE
BIU
   21    20     1     0     0
SMALL
abcg2


@<TRIPOS>ATOM
      1 N           49.4840    26.7410    -5.2500 n8         1 BIU      -1.014200
      2 CA          48.0480    26.6160    -5.4920 c3         1 BIU       0.017500
      3 CB          47.3820    25.8780    -4.3160 c3         1 BIU      -0.039700
      4 CG2         45.8990    25.6260    -4.5750 c3         1 BIU      -0.074100
      5 CG1         48.0930    24.5500    -4.0070 c3         1 BIU      -0.063400
      6 CD1         49.1300    24.6000    -2.9090 c3         1 BIU       0.131600
      7 C           47.3540    27.9790    -5.7260 c          1 BIU       0.691000
      8 O           47.6610    28.8860    -4.9220 o          1 BIU      -0.732000
      9 BR          48.3030    24.8890    -1.1290 br         1 BIU      -0.342000
     10 HN          49.9330    27.0600    -6.1000 hn         1 BIU       0.385000
     11 HNA         49.6140    27.4970    -4.5860 hn         1 BIU       0.385000
     12 HA          47.9210    25.9910    -6.3830 h1         1 BIU       0.034700
     13 HB          47.4590    26.5310    -3.4380 hc         1 BIU       0.063700
     14 HG2         45.4440    25.1190    -3.7230 hc         1 BIU       0.027033
     15 HG2A        45.3420    26.5460    -4.7460 hc         1 BIU       0.027033
     16 HG2B        45.7590    24.9870    -5.4500 hc         1 BIU       0.027033
     17 HG1         47.3660    23.7690    -3.7720 hc         1 BIU       0.036200
     18 HG1A        48.6230    24.2000    -4.9000 hc         1 BIU       0.036200
     19 HD1         49.6750    23.6620    -2.8230 h1         1 BIU       0.066700
     20 HD1A        49.8340    25.4160    -3.0510 h1         1 BIU       0.066700
     21 OXT         46.5470    28.0630    -6.6730 o          1 BIU      -0.732000
@<TRIPOS>BOND
     1     1     2 1   
     2     1    10 1   
     3     1    11 1   
     4     2     3 1   
     5     2     7 1   
     6     2    12 1   
     7     3     4 1   
     8     3     5 1   
     9     3    13 1   
    10     4    14 1   
    11     4    15 1   
    12     4    16 1   
    13     5     6 1   
    14     5    17 1   
    15     5    18 1   
    16     6     9 1   
    17     6    19 1   
    18     6    20 1   
    19     7     8 1   
    20     7    21 1   
@<TRIPOS>SUBSTRUCTURE
     1 BIU         1 TEMP              0 ****  ****    0 ROOT
