@<TRIPOS>MOLECULE
BIV
   90    92     1     0     0
SMALL
bcc


@<TRIPOS>ATOM
      1 O2           9.5060     0.4470     0.3900 oh         1 BIV      -0.598800
      2 O3          -6.7710    -2.1190     0.4520 oh         1 BIV      -0.596800
      3 C1           6.9980    -1.3870    -1.6820 c6         1 BIV       0.188300
      4 C2           8.3490    -0.9120    -1.1660 c6         1 BIV      -0.065400
      5 C3           8.2060     0.0990    -0.0380 c6         1 BIV       0.153100
      6 C4           7.3750    -0.5000     1.1010 c6         1 BIV      -0.073200
      7 C5           6.0390    -0.9840     0.6060 ce         1 BIV      -0.067200
      8 C6           4.8830    -0.5750     1.1580 cf         1 BIV      -0.111000
      9 C7           3.5510    -0.9060     0.6920 cf         1 BIV      -0.143000
     10 C8           2.3920    -0.6020     1.2970 c2         1 BIV      -0.077400
     11 C9           2.2520     0.0830     2.6290 c6         1 BIV      -0.041200
     12 C10          6.1400    -1.8990    -0.5470 ce         1 BIV      -0.125200
     13 C11          1.2830     1.2680     2.5720 c6         1 BIV      -0.072400
     14 C12         -0.0530     0.9100     1.9190 c6         1 BIV      -0.063400
     15 C13          0.1400     0.2810     0.5370 c5         1 BIV      -0.036000
     16 C14          1.0590    -0.9550     0.7170 c5         1 BIV      -0.037500
     17 C15          0.9590    -1.6950    -0.6080 c5         1 BIV      -0.070400
     18 C16         -0.4910    -1.4400    -1.0620 c5         1 BIV      -0.076400
     19 C17         -1.1020    -0.4030    -0.0860 c5         1 BIV      -0.054700
     20 C18          0.7590     1.2840    -0.4390 c3         1 BIV      -0.079100
     21 C19          5.5610    -3.0970    -0.6050 c2         1 BIV      -0.196000
     22 C20         -2.1830     0.4600    -0.7560 c3         1 BIV      -0.040700
     23 C22         -3.2550    -0.4190    -1.4200 c3         1 BIV      -0.074400
     24 C23         -4.0860    -1.2760    -0.4680 c3         1 BIV      -0.072900
     25 C24         -5.1030    -2.1170    -1.2300 c3         1 BIV      -0.082400
     26 C25         -6.0220    -2.9980    -0.3800 c3         1 BIV       0.160800
     27 C26         -5.2240    -3.9810     0.4760 c3         1 BIV      -0.110350
     28 C27         -6.9670    -3.7730    -1.2990 c3         1 BIV      -0.110350
     29 O1           6.3680    -0.2850    -2.3090 oh         1 BIV      -0.593800
     30 C21         -2.7940     1.4880     0.2040 c3         1 BIV      -0.074400
     31 C28         -4.0000     2.2550    -0.3290 c3         1 BIV      -0.072900
     32 C29         -4.4100     3.3740     0.6210 c3         1 BIV      -0.082400
     33 C30         -5.7280     4.0870     0.2850 c3         1 BIV       0.160800
     34 O4          -6.8050     3.1570     0.2580 oh         1 BIV      -0.596800
     35 C32         -6.0000     5.1630     1.3360 c3         1 BIV      -0.110350
     36 C33         -5.6830     4.7180    -1.1010 c3         1 BIV      -0.110350
     37 HO2          9.4280     1.1530     1.0390 ho         1 BIV       0.402000
     38 HO3         -7.3480    -2.6530     1.0070 ho         1 BIV       0.399500
     39 H1           7.1590    -2.2010    -2.4000 h1         1 BIV       0.036700
     40 H21          8.9030    -1.7830    -0.8020 hc         1 BIV       0.062200
     41 H22          8.9270    -0.4870    -1.9920 hc         1 BIV       0.062200
     42 H3           7.6790     0.9850    -0.4150 h1         1 BIV       0.050700
     43 H41          7.9380    -1.3420     1.5220 hc         1 BIV       0.051700
     44 H42          7.2430     0.2360     1.8980 hc         1 BIV       0.051700
     45 H6           4.9620     0.1000     2.0050 ha         1 BIV       0.120000
     46 H7           3.5040    -1.4480    -0.2470 ha         1 BIV       0.123000
     47 H91          1.8510    -0.6520     3.3390 hc         1 BIV       0.045700
     48 H92          3.2120     0.4070     3.0330 hc         1 BIV       0.045700
     49 H111         1.1070     1.6340     3.5860 hc         1 BIV       0.040700
     50 H112         1.7510     2.0950     2.0310 hc         1 BIV       0.040700
     51 H121        -0.5850     0.1950     2.5580 hc         1 BIV       0.040700
     52 H122        -0.6760     1.8050     1.8750 hc         1 BIV       0.040700
     53 H14          0.5530    -1.5780     1.4730 hc         1 BIV       0.052700
     54 H151         1.6610    -1.2900    -1.3390 hc         1 BIV       0.042700
     55 H152         1.1900    -2.7560    -0.5040 hc         1 BIV       0.042700
     56 H161        -0.5100    -1.0560    -2.0850 hc         1 BIV       0.041700
     57 H162        -1.0810    -2.3580    -1.0730 hc         1 BIV       0.041700
     58 H17         -1.5810    -0.9540     0.7340 hc         1 BIV       0.045700
     59 H181         1.7420     1.6200    -0.1070 hc         1 BIV       0.034700
     60 H182         0.8940     0.8610    -1.4360 hc         1 BIV       0.034700
     61 H183         0.1310     2.1700    -0.5430 hc         1 BIV       0.034700
     62 H191         5.6850    -3.7390    -1.4690 ha         1 BIV       0.118500
     63 H192         4.9580    -3.4830     0.2070 ha         1 BIV       0.118500
     64 H20         -1.7050     1.0220    -1.5700 hc         1 BIV       0.044700
     65 H221        -3.9280     0.2190    -2.0020 hc         1 BIV       0.036700
     66 H222        -2.7780    -1.0730    -2.1550 hc         1 BIV       0.036700
     67 H231        -3.4240    -1.9240     0.1130 hc         1 BIV       0.047700
     68 H232        -4.6030    -0.6370     0.2540 hc         1 BIV       0.047700
     69 H241        -5.7280    -1.4550    -1.8400 hc         1 BIV       0.040700
     70 H242        -4.5740    -2.7670    -1.9350 hc         1 BIV       0.040700
     71 H261        -5.8960    -4.6320     1.0420 hc         1 BIV       0.040117
     72 H262        -4.5940    -4.6200    -0.1440 hc         1 BIV       0.040117
     73 H263        -4.5800    -3.4670     1.1910 hc         1 BIV       0.040117
     74 H271        -7.5600    -3.0930    -1.9140 hc         1 BIV       0.040117
     75 H272        -6.4140    -4.4340    -1.9670 hc         1 BIV       0.040117
     76 H273        -7.6560    -4.3940    -0.7200 hc         1 BIV       0.040117
     77 HO1          5.4920    -0.5620    -2.5960 ho         1 BIV       0.405000
     78 H211        -3.0680     1.0010     1.1470 hc         1 BIV       0.036700
     79 H212        -2.0240     2.2190     0.4640 hc         1 BIV       0.036700
     80 H281        -3.7630     2.6670    -1.3160 hc         1 BIV       0.047700
     81 H282        -4.8450     1.5770    -0.4720 hc         1 BIV       0.047700
     82 H291        -4.4930     2.9650     1.6370 hc         1 BIV       0.040700
     83 H292        -3.6120     4.1220     0.6720 hc         1 BIV       0.040700
     84 HO4         -6.8540     2.7320     1.1210 ho         1 BIV       0.399500
     85 H321        -5.2060     5.9110     1.3520 hc         1 BIV       0.040117
     86 H322        -6.9420     5.6760     1.1360 hc         1 BIV       0.040117
     87 H323        -6.0590     4.7270     2.3370 hc         1 BIV       0.040117
     88 H331        -5.5560     3.9690    -1.8830 hc         1 BIV       0.040117
     89 H332        -6.6030     5.2680    -1.3080 hc         1 BIV       0.040117
     90 H333        -4.8520     5.4210    -1.1730 hc         1 BIV       0.040117
@<TRIPOS>BOND
     1     1     5 1   
     2     1    37 1   
     3     2    26 1   
     4     2    38 1   
     5     3     4 1   
     6     3    12 1   
     7     3    29 1   
     8     3    39 1   
     9     4     5 1   
    10     4    40 1   
    11     4    41 1   
    12     5     6 1   
    13     5    42 1   
    14     6     7 1   
    15     6    43 1   
    16     6    44 1   
    17     7     8 2   
    18     7    12 1   
    19     8     9 1   
    20     8    45 1   
    21     9    10 2   
    22     9    46 1   
    23    10    11 1   
    24    10    16 1   
    25    11    13 1   
    26    11    47 1   
    27    11    48 1   
    28    12    21 2   
    29    13    14 1   
    30    13    49 1   
    31    13    50 1   
    32    14    15 1   
    33    14    51 1   
    34    14    52 1   
    35    15    16 1   
    36    15    19 1   
    37    15    20 1   
    38    16    17 1   
    39    16    53 1   
    40    17    18 1   
    41    17    54 1   
    42    17    55 1   
    43    18    19 1   
    44    18    56 1   
    45    18    57 1   
    46    19    22 1   
    47    19    58 1   
    48    20    59 1   
    49    20    60 1   
    50    20    61 1   
    51    21    62 1   
    52    21    63 1   
    53    22    23 1   
    54    22    30 1   
    55    22    64 1   
    56    23    24 1   
    57    23    65 1   
    58    23    66 1   
    59    24    25 1   
    60    24    67 1   
    61    24    68 1   
    62    25    26 1   
    63    25    69 1   
    64    25    70 1   
    65    26    27 1   
    66    26    28 1   
    67    27    71 1   
    68    27    72 1   
    69    27    73 1   
    70    28    74 1   
    71    28    75 1   
    72    28    76 1   
    73    29    77 1   
    74    30    31 1   
    75    30    78 1   
    76    30    79 1   
    77    31    32 1   
    78    31    80 1   
    79    31    81 1   
    80    32    33 1   
    81    32    82 1   
    82    32    83 1   
    83    33    34 1   
    84    33    35 1   
    85    33    36 1   
    86    34    84 1   
    87    35    85 1   
    88    35    86 1   
    89    35    87 1   
    90    36    88 1   
    91    36    89 1   
    92    36    90 1   
@<TRIPOS>SUBSTRUCTURE
     1 BIV         1 TEMP              0 ****  ****    0 ROOT
