@<TRIPOS>MOLECULE
BIV
   90    92     1     0     0
SMALL
No Charge or Current Charge


@<TRIPOS>ATOM
      1 O2           9.7130     0.3490     0.6170 oh         1 BIV      -0.661000
      2 O3          -6.8320    -2.3110     0.6680 oh         1 BIV      -0.659000
      3 C1           7.2400    -1.4330    -1.6830 c6         1 BIV       0.211500
      4 C2           8.6020    -1.0000    -1.0880 c6         1 BIV      -0.065400
      5 C3           8.4330     0.0320     0.0540 c6         1 BIV       0.176300
      6 C4           7.4920    -0.5210     1.1530 c6         1 BIV      -0.073200
      7 C5           6.1420    -0.9450     0.5590 ce         1 BIV      -0.067200
      8 C6           4.9670    -0.5160     1.1070 cf         1 BIV      -0.161000
      9 C7           3.6240    -0.8370     0.6170 cf         1 BIV      -0.193000
     10 C8           2.4320    -0.5750     1.2270 c2         1 BIV      -0.077400
     11 C9           2.2950     0.0740     2.6110 c6         1 BIV      -0.041200
     12 C10          6.2720    -1.8790    -0.5780 ce         1 BIV      -0.125200
     13 C11          1.3050     1.2660     2.5980 c6         1 BIV      -0.072400
     14 C12         -0.0420     0.9130     1.9060 c6         1 BIV      -0.063400
     15 C13          0.1660     0.3090     0.4750 c5         1 BIV      -0.036000
     16 C14          1.0670    -0.9660     0.6310 c5         1 BIV      -0.037500
     17 C15          1.0720    -1.5450    -0.8060 c5         1 BIV      -0.070400
     18 C16         -0.4190    -1.3780    -1.2310 c5         1 BIV      -0.076400
     19 C17         -1.0870    -0.4190    -0.1660 c5         1 BIV      -0.054700
     20 C18          0.7530     1.4240    -0.4580 c3         1 BIV      -0.079100
     21 C19          5.6290    -3.0670    -0.6350 c2         1 BIV      -0.296000
     22 C20         -2.2740     0.4260    -0.7740 c3         1 BIV      -0.040700
     23 C22         -3.3670    -0.4810    -1.4350 c3         1 BIV      -0.074400
     24 C23         -4.1630    -1.3940    -0.4670 c3         1 BIV      -0.072900
     25 C24         -5.2660    -2.2130    -1.1890 c3         1 BIV      -0.082400
     26 C25         -6.1480    -3.1270    -0.2850 c3         1 BIV       0.184000
     27 C26         -5.3120    -4.1710     0.4930 c3         1 BIV      -0.110350
     28 C27         -7.2220    -3.8380    -1.1400 c3         1 BIV      -0.110350
     29 O1           6.6460    -0.3630    -2.4200 oh         1 BIV      -0.656000
     30 C21         -2.8890     1.4680     0.2110 c3         1 BIV      -0.074400
     31 C28         -4.1150     2.2630    -0.3080 c3         1 BIV      -0.072900
     32 C29         -4.5390     3.4010     0.6580 c3         1 BIV      -0.082400
     33 C30         -5.8010     4.2200     0.2470 c3         1 BIV       0.184000
     34 O4          -6.9220     3.3380     0.1640 oh         1 BIV      -0.659000
     35 C32         -6.1240     5.2770     1.3280 c3         1 BIV      -0.110350
     36 C33         -5.6350     4.9050    -1.1310 c3         1 BIV      -0.110350
     37 HO2          9.5600     1.0570     1.2810 ho         1 BIV       0.441000
     38 HO3         -7.3800    -2.9120     1.2150 ho         1 BIV       0.438500
     39 H1           7.4230    -2.2810    -2.3600 h1         1 BIV       0.036700
     40 H21          9.1200    -1.8890    -0.7030 hc         1 BIV       0.062200
     41 H22          9.2410    -0.5870    -1.8800 hc         1 BIV       0.062200
     42 H3           7.9760     0.9400    -0.3670 h1         1 BIV       0.050700
     43 H41          7.9560    -1.3870     1.6440 hc         1 BIV       0.051700
     44 H42          7.3500     0.2390     1.9330 hc         1 BIV       0.051700
     45 H6           5.0450     0.1490     1.9660 ha         1 BIV       0.170000
     46 H7           3.6110    -1.3410    -0.3460 ha         1 BIV       0.173000
     47 H91          1.9260    -0.6860     3.3140 hc         1 BIV       0.045700
     48 H92          3.2510     0.4120     3.0220 hc         1 BIV       0.045700
     49 H111         1.1130     1.5930     3.6290 hc         1 BIV       0.040700
     50 H112         1.7720     2.1230     2.0960 hc         1 BIV       0.040700
     51 H121        -0.5910     0.1970     2.5330 hc         1 BIV       0.040700
     52 H122        -0.6480     1.8220     1.8780 hc         1 BIV       0.040700
     53 H14          0.5990    -1.6930     1.3090 hc         1 BIV       0.052700
     54 H151         1.7270    -0.9890    -1.4860 hc         1 BIV       0.042700
     55 H152         1.3970    -2.5910    -0.8300 hc         1 BIV       0.042700
     56 H161        -0.4740    -0.9670    -2.2450 hc         1 BIV       0.041700
     57 H162        -0.9340    -2.3450    -1.2600 hc         1 BIV       0.041700
     58 H17         -1.5480    -1.0330     0.6160 hc         1 BIV       0.045700
     59 H181         1.7800     1.6930    -0.1870 hc         1 BIV       0.034700
     60 H182         0.7710     1.1270    -1.5130 hc         1 BIV       0.034700
     61 H183         0.1530     2.3400    -0.4050 hc         1 BIV       0.034700
     62 H191         5.7530    -3.7510    -1.4760 ha         1 BIV       0.168500
     63 H192         4.9640    -3.3950     0.1640 ha         1 BIV       0.168500
     64 H20         -1.8550     1.0160    -1.5990 hc         1 BIV       0.044700
     65 H221        -4.0720     0.1470    -1.9930 hc         1 BIV       0.036700
     66 H222        -2.9040    -1.1130    -2.2020 hc         1 BIV       0.036700
     67 H231        -3.4690    -2.0830     0.0250 hc         1 BIV       0.047700
     68 H232        -4.6230    -0.7840     0.3190 hc         1 BIV       0.047700
     69 H241        -5.9200    -1.5130    -1.7240 hc         1 BIV       0.040700
     70 H242        -4.7890    -2.8340    -1.9570 hc         1 BIV       0.040700
     71 H261        -5.9600    -4.8560     1.0530 hc         1 BIV       0.040117
     72 H262        -4.7040    -4.7700    -0.1960 hc         1 BIV       0.040117
     73 H263        -4.6390    -3.6910     1.2140 hc         1 BIV       0.040117
     74 H271        -7.8500    -3.1090    -1.6670 hc         1 BIV       0.040117
     75 H272        -6.7520    -4.4850    -1.8910 hc         1 BIV       0.040117
     76 H273        -7.8750    -4.4620    -0.5190 hc         1 BIV       0.040117
     77 HO1          5.6960    -0.5950    -2.5000 ho         1 BIV       0.444000
     78 H211        -3.1440     0.9790     1.1590 hc         1 BIV       0.036700
     79 H212        -2.1220     2.2160     0.4270 hc         1 BIV       0.036700
     80 H281        -3.8690     2.6840    -1.2900 hc         1 BIV       0.047700
     81 H282        -4.9630     1.5830    -0.4460 hc         1 BIV       0.047700
     82 H291        -4.7070     2.9670     1.6520 hc         1 BIV       0.040700
     83 H292        -3.6960     4.0940     0.7690 hc         1 BIV       0.040700
     84 HO4         -6.9750     2.8670     1.0220 ho         1 BIV       0.438500
     85 H321        -5.3030     5.9980     1.4210 hc         1 BIV       0.040117
     86 H322        -7.0350     5.8320     1.0750 hc         1 BIV       0.040117
     87 H323        -6.2740     4.8070     2.3080 hc         1 BIV       0.040117
     88 H331        -5.5380     4.1680    -1.9360 hc         1 BIV       0.040117
     89 H332        -6.5050     5.5320    -1.3610 hc         1 BIV       0.040117
     90 H333        -4.7440     5.5450    -1.1410 hc         1 BIV       0.040117
@<TRIPOS>BOND
     1     1     5 1   
     2     1    37 1   
     3     2    26 1   
     4     2    38 1   
     5     3     4 1   
     6     3    12 1   
     7     3    29 1   
     8     3    39 1   
     9     4     5 1   
    10     4    40 1   
    11     4    41 1   
    12     5     6 1   
    13     5    42 1   
    14     6     7 1   
    15     6    43 1   
    16     6    44 1   
    17     7     8 2   
    18     7    12 1   
    19     8     9 1   
    20     8    45 1   
    21     9    10 2   
    22     9    46 1   
    23    10    11 1   
    24    10    16 1   
    25    11    13 1   
    26    11    47 1   
    27    11    48 1   
    28    12    21 2   
    29    13    14 1   
    30    13    49 1   
    31    13    50 1   
    32    14    15 1   
    33    14    51 1   
    34    14    52 1   
    35    15    16 1   
    36    15    19 1   
    37    15    20 1   
    38    16    17 1   
    39    16    53 1   
    40    17    18 1   
    41    17    54 1   
    42    17    55 1   
    43    18    19 1   
    44    18    56 1   
    45    18    57 1   
    46    19    22 1   
    47    19    58 1   
    48    20    59 1   
    49    20    60 1   
    50    20    61 1   
    51    21    62 1   
    52    21    63 1   
    53    22    23 1   
    54    22    30 1   
    55    22    64 1   
    56    23    24 1   
    57    23    65 1   
    58    23    66 1   
    59    24    25 1   
    60    24    67 1   
    61    24    68 1   
    62    25    26 1   
    63    25    69 1   
    64    25    70 1   
    65    26    27 1   
    66    26    28 1   
    67    27    71 1   
    68    27    72 1   
    69    27    73 1   
    70    28    74 1   
    71    28    75 1   
    72    28    76 1   
    73    29    77 1   
    74    30    31 1   
    75    30    78 1   
    76    30    79 1   
    77    31    32 1   
    78    31    80 1   
    79    31    81 1   
    80    32    33 1   
    81    32    82 1   
    82    32    83 1   
    83    33    34 1   
    84    33    35 1   
    85    33    36 1   
    86    34    84 1   
    87    35    85 1   
    88    35    86 1   
    89    35    87 1   
    90    36    88 1   
    91    36    89 1   
    92    36    90 1   
@<TRIPOS>SUBSTRUCTURE
     1 BIV         1 TEMP              0 ****  ****    0 ROOT
