@<TRIPOS>MOLECULE
BIW
   63    67     1     0     0
SMALL
No Charge or Current Charge


@<TRIPOS>ATOM
      1 C1           2.7470    -3.3500    -0.2830 ca         1 BIW      -0.121600
      2 C2           1.5560    -2.5910    -0.4260 ca         1 BIW      -0.105000
      3 C3           1.6160    -1.1890    -0.2990 ca         1 BIW      -0.041200
      4 C4           2.7950    -0.5510    -0.0300 ca         1 BIW      -0.101800
      5 C5           3.9910    -1.2650     0.1410 ca         1 BIW      -0.118000
      6 C6           3.9610    -2.6670     0.0040 ca         1 BIW      -0.104000
      7 N7           0.5980    -0.2440    -0.3650 na         1 BIW      -0.064700
      8 C8           1.1100     1.0420    -0.0430 cc         1 BIW       0.016700
      9 C9           2.5020     0.8700     0.0700 cd         1 BIW      -0.132400
     10 C10          3.5280     2.0040     0.1110 c6         1 BIW       0.026500
     11 C11          4.1900     2.1160     1.5110 c6         1 BIW      -0.070900
     12 C12          5.2040     3.2860     1.5630 c6         1 BIW      -0.073400
     13 C13          6.2700     3.1580     0.4460 c6         1 BIW      -0.071400
     14 C14          5.6100     3.0550    -0.9510 c6         1 BIW      -0.073400
     15 C15          4.6030     1.8780    -1.0080 c6         1 BIW      -0.070900
     16 C16          0.3180     2.2530     0.1720 cc         1 BIW      -0.105800
     17 C17         -1.0540     2.4870    -0.1050 cc         1 BIW      -0.178000
     18 C18         -1.3450     3.7480     0.3280 cd         1 BIW       0.107900
     19 O19         -0.2480     4.3520     0.8850 os         1 BIW      -0.244000
     20 C20          0.7480     3.4070     0.7900 cd         1 BIW       0.148900
     21 C21          2.7220    -4.8670    -0.4180 c          1 BIW       0.712600
     22 O22          3.7650    -5.4880    -0.2670 o          1 BIW      -0.729500
     23 O23          1.6600    -5.4160    -0.6760 o          1 BIW      -0.729500
     24 C24         -0.7820    -0.6380    -0.7270 c3         1 BIW      -0.007400
     25 C25         -1.7630    -0.7050     0.4650 c          1 BIW       0.586100
     26 O26         -1.3620    -0.7840     1.6220 o          1 BIW      -0.606100
     27 N27         -3.1480    -0.6000     0.1870 n          1 BIW      -0.401800
     28 C28         -4.1130    -0.5980     1.3290 c6         1 BIW       0.092000
     29 C29         -5.5350    -0.1050     0.9760 c6         1 BIW      -0.071900
     30 C30         -6.1030    -0.8400    -0.2590 c6         1 BIW      -0.187700
     31 C31         -5.1280    -0.6340    -1.4400 c6         1 BIW      -0.071900
     32 C32         -3.7010    -1.1250    -1.1010 c6         1 BIW       0.092000
     33 C33         -7.5520    -0.4050    -0.5980 c          1 BIW       0.722000
     34 O34         -8.4280    -1.2550    -0.5590 o          1 BIW      -0.741000
     35 O35         -7.7580     0.7640    -0.8890 o          1 BIW      -0.741000
     36 H2           0.6140    -3.0950    -0.6200 ha         1 BIW       0.131000
     37 H5           4.9210    -0.7680     0.3960 ha         1 BIW       0.083000
     38 H6           4.8850    -3.2250     0.1340 ha         1 BIW       0.119000
     39 H10          3.0410     2.9540    -0.1220 hc         1 BIW       0.035700
     40 H11          3.4190     2.2610     2.2790 hc         1 BIW       0.047200
     41 H11A         4.7010     1.1770     1.7620 hc         1 BIW       0.047200
     42 H12          4.6710     4.2410     1.4580 hc         1 BIW       0.025700
     43 H12A         5.6950     3.3100     2.5460 hc         1 BIW       0.025700
     44 H13          6.9450     4.0240     0.4760 hc         1 BIW       0.026200
     45 H13A         6.8910     2.2700     0.6280 hc         1 BIW       0.026200
     46 H14          5.0950     3.9960    -1.1880 hc         1 BIW       0.025700
     47 H14A         6.3830     2.9210    -1.7190 hc         1 BIW       0.025700
     48 H15          5.1590     0.9390    -0.9280 hc         1 BIW       0.047200
     49 H15A         4.1130     1.8610    -1.9910 hc         1 BIW       0.047200
     50 H17         -1.7640     1.8270    -0.5790 ha         1 BIW       0.138000
     51 H18         -2.2680     4.3120     0.2990 h4         1 BIW       0.045100
     52 H20          1.6840     3.6660     1.2630 h4         1 BIW       0.058100
     53 H24         -1.1550     0.0690    -1.4720 h1         1 BIW       0.073700
     54 H24A        -0.7890    -1.6160    -1.2150 h1         1 BIW       0.073700
     55 H28         -4.1800    -1.6230     1.7230 h1         1 BIW       0.035450
     56 H28A        -3.7210     0.0340     2.1390 h1         1 BIW       0.035450
     57 H29         -6.1980    -0.2500     1.8400 hc         1 BIW       0.047950
     58 H29A        -5.5040     0.9770     0.7860 hc         1 BIW       0.047950
     59 H30         -6.1340    -1.9150    -0.0290 hc         1 BIW       0.023700
     60 H31         -5.4960    -1.1630    -2.3290 hc         1 BIW       0.047950
     61 H31A        -5.0860     0.4310    -1.7090 hc         1 BIW       0.047950
     62 H32         -3.0480    -0.8550    -1.9410 h1         1 BIW       0.035450
     63 H32A        -3.7100    -2.2230    -1.0430 h1         1 BIW       0.035450
@<TRIPOS>BOND
     1     1     2 ar  
     2     1     6 ar  
     3     1    21 1   
     4     2     3 ar  
     5     2    36 1   
     6     3     4 ar  
     7     3     7 1   
     8     4     5 ar  
     9     4     9 1   
    10     5     6 ar  
    11     5    37 1   
    12     6    38 1   
    13     7     8 1   
    14     7    24 1   
    15     8     9 2   
    16     8    16 1   
    17     9    10 1   
    18    10    11 1   
    19    10    15 1   
    20    10    39 1   
    21    11    12 1   
    22    11    40 1   
    23    11    41 1   
    24    12    13 1   
    25    12    42 1   
    26    12    43 1   
    27    13    14 1   
    28    13    44 1   
    29    13    45 1   
    30    14    15 1   
    31    14    46 1   
    32    14    47 1   
    33    15    48 1   
    34    15    49 1   
    35    16    17 1   
    36    16    20 2   
    37    17    18 2   
    38    17    50 1   
    39    18    19 1   
    40    18    51 1   
    41    19    20 1   
    42    20    52 1   
    43    21    22 1   
    44    21    23 1   
    45    24    25 1   
    46    24    53 1   
    47    24    54 1   
    48    25    26 2   
    49    25    27 1   
    50    27    28 1   
    51    27    32 1   
    52    28    29 1   
    53    28    55 1   
    54    28    56 1   
    55    29    30 1   
    56    29    57 1   
    57    29    58 1   
    58    30    31 1   
    59    30    33 1   
    60    30    59 1   
    61    31    32 1   
    62    31    60 1   
    63    31    61 1   
    64    32    62 1   
    65    32    63 1   
    66    33    34 1   
    67    33    35 1   
@<TRIPOS>SUBSTRUCTURE
     1 BIW         1 TEMP              0 ****  ****    0 ROOT
