@<TRIPOS>MOLECULE
BIW
   63    67     1     0     0
SMALL
abcg2


@<TRIPOS>ATOM
      1 C1           2.7640    -3.4200    -0.3060 ca         1 BIW      -0.121600
      2 C2           1.5830    -2.7480    -0.5720 ca         1 BIW      -0.105000
      3 C3           1.5780    -1.3580    -0.5050 ca         1 BIW      -0.041200
      4 C4           2.7270    -0.6130    -0.1660 ca         1 BIW      -0.101800
      5 C5           3.9130    -1.3100     0.0990 ca         1 BIW      -0.118000
      6 C6           3.9200    -2.6880     0.0270 ca         1 BIW      -0.104000
      7 N7           0.5600    -0.4750    -0.7420 na         1 BIW      -0.064700
      8 C8           1.0220     0.8030    -0.5060 cc         1 BIW       0.016700
      9 C9           2.3520     0.7710    -0.1730 cd         1 BIW      -0.132400
     10 C10          3.2260     1.9580     0.0860 c6         1 BIW       0.026500
     11 C11          3.7600     1.9910     1.5230 c6         1 BIW      -0.070900
     12 C12          4.6210     3.2250     1.7740 c6         1 BIW      -0.073400
     13 C13          5.7570     3.3300     0.7620 c6         1 BIW      -0.071400
     14 C14          5.2260     3.3090    -0.6670 c6         1 BIW      -0.073400
     15 C15          4.3760     2.0690    -0.9240 c6         1 BIW      -0.070900
     16 C16          0.1350     1.9500    -0.6330 cc         1 BIW      -0.105800
     17 C17         -0.5980     2.3850    -1.7890 cc         1 BIW      -0.178000
     18 C18         -1.2740     3.4920    -1.4100 cd         1 BIW       0.107900
     19 O19         -1.0190     3.7760    -0.1150 os         1 BIW      -0.244000
     20 C20         -0.1720     2.8390     0.3460 cd         1 BIW       0.148900
     21 C21          2.8060    -4.9400    -0.3720 c          1 BIW       0.712600
     22 O22          3.9060    -5.4820    -0.1470 o          1 BIW      -0.729500
     23 O23          1.7360    -5.5210    -0.6450 o          1 BIW      -0.729500
     24 C24         -0.8170    -0.8350    -0.8870 c3         1 BIW      -0.007400
     25 C25         -1.5380    -0.8420     0.4650 c          1 BIW       0.586100
     26 O26         -0.9060    -0.6280     1.4880 o          1 BIW      -0.606100
     27 N27         -2.8580    -1.0910     0.4420 n          1 BIW      -0.401800
     28 C28         -3.6540    -1.0560     1.6590 c6         1 BIW       0.092000
     29 C29         -4.7590    -0.0130     1.5540 c6         1 BIW      -0.071900
     30 C30         -5.6290    -0.2450     0.3240 c6         1 BIW      -0.187700
     31 C31         -4.7490    -0.3260    -0.9210 c6         1 BIW      -0.071900
     32 C32         -3.6430    -1.3590    -0.7530 c6         1 BIW       0.092000
     33 C33         -6.7760     0.7780     0.1740 c          1 BIW       0.722000
     34 O34         -7.2750     0.8960    -0.9640 o          1 BIW      -0.741000
     35 O35         -7.1390     1.3840     1.2020 o          1 BIW      -0.741000
     36 H2           0.6910    -3.3080    -0.8230 ha         1 BIW       0.131000
     37 H5           4.8190    -0.7810     0.3670 ha         1 BIW       0.083000
     38 H6           4.8330    -3.2290     0.2370 ha         1 BIW       0.119000
     39 H10          2.6050     2.8530    -0.0410 hc         1 BIW       0.035700
     40 H11          2.9200     1.9660     2.2230 hc         1 BIW       0.047200
     41 H11A         4.3520     1.0910     1.7210 hc         1 BIW       0.047200
     42 H12          3.9940     4.1220     1.7080 hc         1 BIW       0.025700
     43 H12A         5.0200     3.2030     2.7910 hc         1 BIW       0.025700
     44 H13          6.3380     4.2390     0.9370 hc         1 BIW       0.026200
     45 H13A         6.4460     2.4900     0.9030 hc         1 BIW       0.026200
     46 H14          4.6220     4.2060    -0.8430 hc         1 BIW       0.025700
     47 H14A         6.0540     3.3490    -1.3800 hc         1 BIW       0.025700
     48 H15          5.0120     1.1800    -0.8670 hc         1 BIW       0.047200
     49 H15A         3.9670     2.0920    -1.9380 hc         1 BIW       0.047200
     50 H17         -0.6000     1.9360    -2.7690 ha         1 BIW       0.138000
     51 H18         -1.9420     4.1580    -1.9310 h4         1 BIW       0.045100
     52 H20          0.1230     2.9080     1.3810 h4         1 BIW       0.058100
     53 H24         -1.3060    -0.1450    -1.5750 h1         1 BIW       0.073700
     54 H24A        -0.8740    -1.8190    -1.3540 h1         1 BIW       0.073700
     55 H28         -4.0920    -2.0480     1.8150 h1         1 BIW       0.035450
     56 H28A        -3.0020    -0.8550     2.5050 h1         1 BIW       0.035450
     57 H29         -5.3610    -0.0490     2.4630 hc         1 BIW       0.047950
     58 H29A        -4.3070     0.9840     1.5130 hc         1 BIW       0.047950
     59 H30         -6.1110    -1.2280     0.4430 hc         1 BIW       0.023700
     60 H31         -5.3440    -0.5880    -1.7950 hc         1 BIW       0.047950
     61 H31A        -4.2950     0.6510    -1.1230 hc         1 BIW       0.047950
     62 H32         -3.0110    -1.3830    -1.6370 h1         1 BIW       0.035450
     63 H32A        -4.0810    -2.3590    -0.6600 h1         1 BIW       0.035450
@<TRIPOS>BOND
     1     1     2 ar  
     2     1     6 ar  
     3     1    21 1   
     4     2     3 ar  
     5     2    36 1   
     6     3     4 ar  
     7     3     7 1   
     8     4     5 ar  
     9     4     9 1   
    10     5     6 ar  
    11     5    37 1   
    12     6    38 1   
    13     7     8 1   
    14     7    24 1   
    15     8     9 2   
    16     8    16 1   
    17     9    10 1   
    18    10    11 1   
    19    10    15 1   
    20    10    39 1   
    21    11    12 1   
    22    11    40 1   
    23    11    41 1   
    24    12    13 1   
    25    12    42 1   
    26    12    43 1   
    27    13    14 1   
    28    13    44 1   
    29    13    45 1   
    30    14    15 1   
    31    14    46 1   
    32    14    47 1   
    33    15    48 1   
    34    15    49 1   
    35    16    17 1   
    36    16    20 2   
    37    17    18 2   
    38    17    50 1   
    39    18    19 1   
    40    18    51 1   
    41    19    20 1   
    42    20    52 1   
    43    21    22 1   
    44    21    23 1   
    45    24    25 1   
    46    24    53 1   
    47    24    54 1   
    48    25    26 2   
    49    25    27 1   
    50    27    28 1   
    51    27    32 1   
    52    28    29 1   
    53    28    55 1   
    54    28    56 1   
    55    29    30 1   
    56    29    57 1   
    57    29    58 1   
    58    30    31 1   
    59    30    33 1   
    60    30    59 1   
    61    31    32 1   
    62    31    60 1   
    63    31    61 1   
    64    32    62 1   
    65    32    63 1   
    66    33    34 1   
    67    33    35 1   
@<TRIPOS>SUBSTRUCTURE
     1 BIW         1 TEMP              0 ****  ****    0 ROOT
