@<TRIPOS>MOLECULE
BIY
   23    23     1     0     0
SMALL
No Charge or Current Charge


@<TRIPOS>ATOM
      1 O14         -3.3030    -0.8320     1.1320 o          1 BIY      -0.758000
      2 C12         -2.9370    -0.1600     0.1760 c          1 BIY       0.739200
      3 C3          -1.4510    -0.0460    -0.1450 ce         1 BIY      -0.140600
      4 C2          -1.0360     0.6780    -1.2200 c2         1 BIY       0.015000
      5 N1           0.3150     0.8070    -1.5920 nu         1 BIY      -0.821200
      6 S4          -0.3370    -0.9910     0.9350 ss         1 BIY      -0.325600
      7 C5           1.1720    -1.0940    -0.1320 c6         1 BIY       0.080000
      8 C11          0.9390    -2.2020    -1.2080 c3         1 BIY      -0.057100
      9 C10          2.3490    -1.5860     0.7650 c3         1 BIY      -0.057100
     10 C6           1.4960     0.2830    -0.8090 c6         1 BIY       0.097500
     11 C7           2.1560     1.3250     0.2010 c          1 BIY       0.704000
     12 O9           1.4420     2.1840     0.7110 o          1 BIY      -0.733000
     13 O8           3.3550     1.5380     0.0510 o          1 BIY      -0.733000
     14 OXT         -3.7370     0.4330    -0.5370 o          1 BIY      -0.758000
     15 H1           0.5220     1.4490    -2.3620 hn         1 BIY       0.436000
     16 H2          -1.7440     1.2120    -1.8610 h4         1 BIY       0.176000
     17 H6           2.2920     0.0820    -1.5420 h1         1 BIY       0.014700
     18 H111         0.0880    -1.9700    -1.8580 hc         1 BIY       0.020033
     19 H112         1.8190    -2.3250    -1.8510 hc         1 BIY       0.020033
     20 H113         0.7330    -3.1740    -0.7430 hc         1 BIY       0.020033
     21 H101         2.1500    -2.5840     1.1750 hc         1 BIY       0.020033
     22 H102         3.2860    -1.6440     0.1980 hc         1 BIY       0.020033
     23 H103         2.5160    -0.9190     1.6190 hc         1 BIY       0.020033
@<TRIPOS>BOND
     1     1     2 1   
     2     2     3 1   
     3     2    14 1   
     4     3     4 2   
     5     3     6 1   
     6     4     5 1   
     7     4    16 1   
     8     5    10 1   
     9     5    15 1   
    10     6     7 1   
    11     7     8 1   
    12     7     9 1   
    13     7    10 1   
    14     8    18 1   
    15     8    19 1   
    16     8    20 1   
    17     9    21 1   
    18     9    22 1   
    19     9    23 1   
    20    10    11 1   
    21    10    17 1   
    22    11    12 1   
    23    11    13 1   
@<TRIPOS>SUBSTRUCTURE
     1 BIY         1 TEMP              0 ****  ****    0 ROOT
