@<TRIPOS>MOLECULE
BIY
   23    23     1     0     0
SMALL
bcc


@<TRIPOS>ATOM
      1 O14         -3.0660    -0.6980     1.3060 o          1 BIY      -0.863300
      2 C12         -2.8040    -0.0940     0.2420 c          1 BIY       0.949800
      3 C3          -1.3640    -0.0760    -0.1550 ce         1 BIY      -0.140600
      4 C2          -0.9060     0.5930    -1.2290 c2         1 BIY       0.065000
      5 N1           0.3770     0.6440    -1.6730 nu         1 BIY      -0.766000
      6 S4          -0.2690    -0.9310     0.9300 ss         1 BIY      -0.277700
      7 C5           1.1900    -1.0910    -0.1640 c6         1 BIY       0.032100
      8 C11          0.9060    -2.1470    -1.2310 c3         1 BIY      -0.057100
      9 C10          2.3370    -1.5730     0.7170 c3         1 BIY      -0.057100
     10 C6           1.4950     0.2650    -0.8430 c6         1 BIY       0.097500
     11 C7           1.9250     1.3780     0.1480 c          1 BIY       0.914600
     12 O9           1.0730     2.2230     0.4670 o          1 BIY      -0.838300
     13 O8           3.1150     1.3340     0.5260 o          1 BIY      -0.838300
     14 OXT         -3.6270     0.4970    -0.4920 o          1 BIY      -0.863300
     15 H1           0.5690     1.3480    -2.3640 hn         1 BIY       0.380800
     16 H2          -1.6270     1.0980    -1.8610 h4         1 BIY       0.126000
     17 H6           2.3400     0.0840    -1.5170 h1         1 BIY       0.014700
     18 H111         0.0110    -1.9210    -1.8080 hc         1 BIY       0.020033
     19 H112         1.7460    -2.2200    -1.9280 hc         1 BIY       0.020033
     20 H113         0.7690    -3.1250    -0.7690 hc         1 BIY       0.020033
     21 H101         2.1050    -2.5610     1.1200 hc         1 BIY       0.020033
     22 H102         3.2540    -1.6590     0.1320 hc         1 BIY       0.020033
     23 H103         2.5340    -0.9040     1.5500 hc         1 BIY       0.020033
@<TRIPOS>BOND
     1     1     2 1   
     2     2     3 1   
     3     2    14 1   
     4     3     4 2   
     5     3     6 1   
     6     4     5 1   
     7     4    16 1   
     8     5    10 1   
     9     5    15 1   
    10     6     7 1   
    11     7     8 1   
    12     7     9 1   
    13     7    10 1   
    14     8    18 1   
    15     8    19 1   
    16     8    20 1   
    17     9    21 1   
    18     9    22 1   
    19     9    23 1   
    20    10    11 1   
    21    10    17 1   
    22    11    12 1   
    23    11    13 1   
@<TRIPOS>SUBSTRUCTURE
     1 BIY         1 TEMP              0 ****  ****    0 ROOT
