@<TRIPOS>MOLECULE
BIZ
   94   103     1     0     0
SMALL
abcg2


@<TRIPOS>ATOM
      1 C           -5.7800     0.7420     2.7070 c          1 BIZ       0.660100
      2 O           -6.4160     0.2670     3.6440 o          1 BIZ      -0.612100
      3 N1          -5.7630     0.1910     1.4470 ns         1 BIZ      -0.169000
      4 C2          -6.4080    -1.0080     1.0660 ca         1 BIZ      -0.042000
      5 C3          -5.7520    -1.8650     0.1980 ca         1 BIZ      -0.109500
      6 C4          -6.4100    -3.0230    -0.2440 ca         1 BIZ      -0.094300
      7 C5          -7.7240    -3.2960     0.2200 ca         1 BIZ      -0.045200
      8 C6          -8.3830    -2.4360     1.1010 ca         1 BIZ      -0.106500
      9 C7          -7.7220    -1.2930     1.5060 ca         1 BIZ      -0.081000
     10 N8          -8.1250    -4.4710    -0.3530 na         1 BIZ      -0.192700
     11 C9          -7.1200    -4.9660    -1.1590 cc         1 BIZ      -0.128800
     12 C10         -6.0470    -4.0950    -1.1130 cd         1 BIZ      -0.197700
     13 C11         -7.4360    -6.1870    -1.9280 c          1 BIZ       0.638300
     14 O12         -8.6280    -6.5000    -2.0730 o          1 BIZ      -0.612100
     15 N13         -6.4210    -6.9150    -2.4540 n          1 BIZ      -0.208400
     16 C14         -4.9840    -6.7850    -2.1200 c5         1 BIZ       0.100500
     17 C15         -4.4140    -8.2010    -2.3220 c5         1 BIZ      -0.015900
     18 C16         -5.3960    -8.7820    -3.3100 ca         1 BIZ      -0.121800
     19 C17         -6.5730    -8.0470    -3.3020 ca         1 BIZ      -0.027000
     20 C18         -4.3810    -8.9960    -1.0100 c3         1 BIZ      -0.086100
     21 C19         -7.6950    -8.3950    -4.0690 ca         1 BIZ      -0.121500
     22 C20         -7.6350    -9.5220    -4.8750 ca         1 BIZ       0.133600
     23 O21         -8.7430    -9.8320    -5.6210 oh         1 BIZ      -0.533600
     24 C22         -6.4510   -10.2680    -4.9110 ca         1 BIZ      -0.128200
     25 C23         -5.3170    -9.9160    -4.1250 ca         1 BIZ      -0.020800
     26 C24         -4.2900   -10.8860    -4.4130 cc         1 BIZ      -0.142900
     27 C25         -4.8270   -11.7550    -5.3270 cd         1 BIZ      -0.148100
     28 C26         -2.9040   -10.9410    -3.8530 c3         1 BIZ      -0.013900
     29 N27         -6.1250   -11.4020    -5.6230 na         1 BIZ      -0.238200
     30 N3          -5.0280     1.8880     2.8030 ns         1 BIZ      -0.169000
     31 C8          -4.7990     2.6480     3.9710 ca         1 BIZ      -0.042000
     32 C12         -3.5710     3.2750     4.1120 ca         1 BIZ      -0.109500
     33 C13         -3.3440     4.0880     5.2320 ca         1 BIZ      -0.094300
     34 C21         -4.3680     4.2350     6.2050 ca         1 BIZ      -0.045200
     35 C27         -5.6060     3.6060     6.0620 ca         1 BIZ      -0.106500
     36 C28         -5.8140     2.8250     4.9420 ca         1 BIZ      -0.081000
     37 N4          -3.8870     5.0560     7.1860 na         1 BIZ      -0.192700
     38 C29         -2.5990     5.4480     6.8800 cc         1 BIZ      -0.128800
     39 CA          -2.2340     4.8660     5.6790 cd         1 BIZ      -0.197700
     40 CB          -1.9210     6.2790     7.8980 c          1 BIZ       0.638300
     41 OC          -2.4220     6.3420     9.0310 o          1 BIZ      -0.612100
     42 ND          -0.7820     6.9360     7.5710 n          1 BIZ      -0.208400
     43 CE          -0.2270     7.1070     6.2100 c5         1 BIZ       0.100500
     44 CF           0.5960     8.4060     6.2860 c5         1 BIZ      -0.015900
     45 CG           0.9000     8.4860     7.7620 ca         1 BIZ      -0.121800
     46 CH           0.0290     7.6750     8.4750 ca         1 BIZ      -0.027000
     47 CI          -0.2080     9.6200     5.8000 c3         1 BIZ      -0.086100
     48 CJ           0.0280     7.6040     9.8760 ca         1 BIZ      -0.121500
     49 CK           0.9280     8.3800    10.5900 ca         1 BIZ       0.133600
     50 OL           0.8860     8.3030    11.9590 oh         1 BIZ      -0.533600
     51 CM           1.8130     9.2100     9.8920 ca         1 BIZ      -0.128200
     52 CN           1.8200     9.2690     8.4690 ca         1 BIZ      -0.020800
     53 CO           2.8630    10.1910     8.0930 cc         1 BIZ      -0.142900
     54 CP           3.4180    10.6420     9.2630 cd         1 BIZ      -0.148100
     55 CQ           3.2910    10.5730     6.7120 c3         1 BIZ      -0.013900
     56 NR           2.7950    10.0620    10.3450 na         1 BIZ      -0.238200
     57 HN1         -5.0770     0.5390     0.7940 hn         1 BIZ       0.142500
     58 H3          -4.7450    -1.6390    -0.1340 ha         1 BIZ       0.112000
     59 H6          -9.3870    -2.6460     1.4450 ha         1 BIZ       0.123000
     60 H7          -8.2110    -0.5980     2.1710 ha         1 BIZ       0.140500
     61 HN8         -9.0280    -4.9080    -0.2660 hn         1 BIZ       0.373500
     62 H10         -5.1210    -4.1880    -1.6500 ha         1 BIZ       0.203500
     63 H141        -4.5150    -6.0770    -2.8060 h1         1 BIZ       0.058950
     64 H142        -4.8640    -6.4290    -1.1010 h1         1 BIZ       0.058950
     65 H15         -3.4060    -8.1370    -2.7330 hc         1 BIZ       0.067200
     66 H181        -4.0830   -10.0290    -1.1860 hc         1 BIZ       0.041200
     67 H182        -3.6750    -8.5480    -0.3070 hc         1 BIZ       0.041200
     68 H183        -5.3710    -9.0030    -0.5470 hc         1 BIZ       0.041200
     69 H19         -8.6000    -7.8120    -4.0380 ha         1 BIZ       0.161500
     70 HO2         -8.6690   -10.7130    -6.0080 ho         1 BIZ       0.452500
     71 H25         -4.3750   -12.6120    -5.8010 h4         1 BIZ       0.213000
     72 H261        -2.3330   -11.7400    -4.3270 hc         1 BIZ       0.037033
     73 H262        -2.3680   -10.0030    -4.0170 hc         1 BIZ       0.037033
     74 H263        -2.9050   -11.1250    -2.7760 hc         1 BIZ       0.037033
     75 HN7         -6.6800   -11.8460    -6.3350 hn         1 BIZ       0.346500
     76 H5          -4.4370     2.1210     2.0190 hn         1 BIZ       0.142500
     77 H9          -2.8010     3.1390     3.3620 ha         1 BIZ       0.112000
     78 H11         -6.3880     3.7330     6.7990 ha         1 BIZ       0.123000
     79 H12         -6.7640     2.3370     4.7980 ha         1 BIZ       0.140500
     80 H13         -4.3550     5.3240     8.0360 hn         1 BIZ       0.373500
     81 H16         -1.2860     4.9510     5.1820 ha         1 BIZ       0.203500
     82 H4'1         0.4140     6.2560     5.9710 h1         1 BIZ       0.058950
     83 H4'2        -1.0290     7.1660     5.4800 h1         1 BIZ       0.058950
     84 H17          1.4980     8.3050     5.6830 hc         1 BIZ       0.067200
     85 H8'1         0.3480    10.5440     5.9540 hc         1 BIZ       0.041200
     86 H8'2        -0.4370     9.5280     4.7360 hc         1 BIZ       0.041200
     87 H8'3        -1.1480     9.6950     6.3510 hc         1 BIZ       0.041200
     88 H20         -0.6530     6.9600    10.4050 ha         1 BIZ       0.161500
     89 H21          1.6630     8.7130    12.3570 ho         1 BIZ       0.452500
     90 H22          4.2270    11.3390     9.4100 h4         1 BIZ       0.213000
     91 H6'1         4.1610    11.2290     6.7510 hc         1 BIZ       0.037033
     92 H6'2         3.5570     9.6960     6.1180 hc         1 BIZ       0.037033
     93 H6'3         2.5010    11.1000     6.1700 hc         1 BIZ       0.037033
     94 H23          3.0360    10.2520    11.3030 hn         1 BIZ       0.346500
@<TRIPOS>BOND
     1     1     2 2   
     2     1     3 1   
     3     1    30 1   
     4     3     4 1   
     5     3    57 1   
     6     4     5 ar  
     7     4     9 ar  
     8     5     6 ar  
     9     5    58 1   
    10     6     7 ar  
    11     6    12 1   
    12     7     8 ar  
    13     7    10 1   
    14     8     9 ar  
    15     8    59 1   
    16     9    60 1   
    17    10    11 1   
    18    10    61 1   
    19    11    12 2   
    20    11    13 1   
    21    12    62 1   
    22    13    14 2   
    23    13    15 1   
    24    15    16 1   
    25    15    19 1   
    26    16    17 1   
    27    16    63 1   
    28    16    64 1   
    29    17    18 1   
    30    17    20 1   
    31    17    65 1   
    32    18    19 ar  
    33    18    25 ar  
    34    19    21 ar  
    35    20    66 1   
    36    20    67 1   
    37    20    68 1   
    38    21    22 ar  
    39    21    69 1   
    40    22    23 1   
    41    22    24 ar  
    42    23    70 1   
    43    24    25 ar  
    44    24    29 1   
    45    25    26 1   
    46    26    27 2   
    47    26    28 1   
    48    27    29 1   
    49    27    71 1   
    50    28    72 1   
    51    28    73 1   
    52    28    74 1   
    53    29    75 1   
    54    30    31 1   
    55    30    76 1   
    56    31    32 ar  
    57    31    36 ar  
    58    32    33 ar  
    59    32    77 1   
    60    33    34 ar  
    61    33    39 1   
    62    34    35 ar  
    63    34    37 1   
    64    35    36 ar  
    65    35    78 1   
    66    36    79 1   
    67    37    38 1   
    68    37    80 1   
    69    38    39 2   
    70    38    40 1   
    71    39    81 1   
    72    40    41 2   
    73    40    42 1   
    74    42    43 1   
    75    42    46 1   
    76    43    44 1   
    77    43    82 1   
    78    43    83 1   
    79    44    45 1   
    80    44    47 1   
    81    44    84 1   
    82    45    46 ar  
    83    45    52 ar  
    84    46    48 ar  
    85    47    85 1   
    86    47    86 1   
    87    47    87 1   
    88    48    49 ar  
    89    48    88 1   
    90    49    50 1   
    91    49    51 ar  
    92    50    89 1   
    93    51    52 ar  
    94    51    56 1   
    95    52    53 1   
    96    53    54 2   
    97    53    55 1   
    98    54    56 1   
    99    54    90 1   
   100    55    91 1   
   101    55    92 1   
   102    55    93 1   
   103    56    94 1   
@<TRIPOS>SUBSTRUCTURE
     1 BIZ         1 TEMP              0 ****  ****    0 ROOT
