@<TRIPOS>MOLECULE
BIZ
   94   103     1     0     0
SMALL
No Charge or Current Charge


@<TRIPOS>ATOM
      1 C           -6.6030     0.5860     3.5140 c          1 BIZ       0.660100
      2 O           -7.7550     0.7620     3.8930 o          1 BIZ      -0.612100
      3 N1          -6.2160    -0.3980     2.6130 ns         1 BIZ      -0.169000
      4 C2          -6.9450    -1.4040     1.9160 ca         1 BIZ      -0.042000
      5 C3          -6.2100    -2.2600     1.0630 ca         1 BIZ      -0.109500
      6 C4          -6.9060    -3.2570     0.3710 ca         1 BIZ      -0.094300
      7 C5          -8.2500    -3.4240     0.4860 ca         1 BIZ      -0.045200
      8 C6          -9.0180    -2.6000     1.3150 ca         1 BIZ      -0.106500
      9 C7          -8.3540    -1.5820     2.0370 ca         1 BIZ      -0.081000
     10 N8          -8.6480    -4.4740    -0.3230 na         1 BIZ      -0.192700
     11 C9          -7.5380    -5.0530    -0.9890 cc         1 BIZ      -0.128800
     12 C10         -6.4640    -4.2630    -0.5580 cd         1 BIZ      -0.197700
     13 C11         -7.5930    -6.1900    -1.9760 c          1 BIZ       0.638300
     14 O12         -8.6920    -6.5790    -2.3600 o          1 BIZ      -0.612100
     15 N13         -6.3980    -6.8270    -2.4330 n          1 BIZ      -0.208400
     16 C14         -5.0960    -6.7060    -1.7280 c5         1 BIZ       0.100500
     17 C15         -4.3090    -8.0030    -2.1880 c5         1 BIZ      -0.015900
     18 C16         -5.0980    -8.4250    -3.4190 ca         1 BIZ      -0.121800
     19 C17         -6.3050    -7.7500    -3.5080 ca         1 BIZ      -0.027000
     20 C18         -4.3030    -9.0910    -1.0890 c3         1 BIZ      -0.086100
     21 C19         -7.2490    -8.0490    -4.5160 ca         1 BIZ      -0.121500
     22 C20         -6.9370    -9.0300    -5.4770 ca         1 BIZ       0.133600
     23 O21         -7.8390    -9.3180    -6.4610 oh         1 BIZ      -0.533600
     24 C22         -5.6850    -9.6810    -5.4010 ca         1 BIZ      -0.128200
     25 C23         -4.7830    -9.3830    -4.4050 ca         1 BIZ      -0.020800
     26 C24         -3.6070   -10.1940    -4.6300 cc         1 BIZ      -0.142900
     27 C25         -3.8830   -10.9660    -5.7520 cd         1 BIZ      -0.148100
     28 C26         -2.3010   -10.1850    -3.8800 c3         1 BIZ      -0.013900
     29 N27         -5.1730   -10.6630    -6.2430 na         1 BIZ      -0.238200
     30 N3          -5.5160     1.3440     3.9290 ns         1 BIZ      -0.169000
     31 C8          -5.3970     2.4430     4.8270 ca         1 BIZ      -0.042000
     32 C12         -4.1060     2.9880     5.0130 ca         1 BIZ      -0.109500
     33 C13         -3.9660     4.0700     5.8890 ca         1 BIZ      -0.094300
     34 C21         -5.0180     4.6040     6.5630 ca         1 BIZ      -0.045200
     35 C27         -6.3130     4.0970     6.4120 ca         1 BIZ      -0.106500
     36 C28         -6.5000     3.0060     5.5330 ca         1 BIZ      -0.081000
     37 N4          -4.5690     5.6470     7.3560 na         1 BIZ      -0.192700
     38 C29         -3.1730     5.8400     7.1970 cc         1 BIZ      -0.128800
     39 CA          -2.8140     4.8320     6.2930 cd         1 BIZ      -0.197700
     40 CB          -2.3330     6.8570     7.9260 c          1 BIZ       0.638300
     41 OC          -2.8470     7.4930     8.8420 o          1 BIZ      -0.612100
     42 ND          -0.9790     7.1030     7.5430 n          1 BIZ      -0.208400
     43 CE          -0.4230     6.6990     6.2260 c5         1 BIZ       0.100500
     44 CF           0.7990     7.6880     6.0250 c5         1 BIZ      -0.015900
     45 CG           1.0250     8.1950     7.4430 ca         1 BIZ      -0.121800
     46 CH          -0.0310     7.8660     8.2770 ca         1 BIZ      -0.027000
     47 CI           0.4590     8.8280     5.0370 c3         1 BIZ      -0.086100
     48 CJ          -0.0880     8.3170     9.6140 ca         1 BIZ      -0.121500
     49 CK           0.9770     9.0870    10.1230 ca         1 BIZ       0.133600
     50 OL           0.9350     9.5190    11.4170 oh         1 BIZ      -0.533600
     51 CM           2.0690     9.3800     9.2750 ca         1 BIZ      -0.128200
     52 CN           2.1000     8.9400     7.9710 ca         1 BIZ      -0.020800
     53 CO           3.3520     9.3780     7.3970 cc         1 BIZ      -0.142900
     54 CP           4.0020    10.0930     8.3960 cd         1 BIZ      -0.148100
     55 CQ           3.9150     9.0840     6.0310 c3         1 BIZ      -0.013900
     56 NR           3.2170    10.1070     9.5700 na         1 BIZ      -0.238200
     57 HN1         -5.2250    -0.4040     2.4100 hn         1 BIZ       0.142500
     58 H3          -5.1350    -2.1520     0.9460 ha         1 BIZ       0.112000
     59 H6         -10.0930    -2.7370     1.4030 ha         1 BIZ       0.123000
     60 H7          -8.9510    -0.9440     2.6800 ha         1 BIZ       0.140500
     61 HN8         -9.6080    -4.7880    -0.4310 hn         1 BIZ       0.373500
     62 H10         -5.4390    -4.3180    -0.9010 ha         1 BIZ       0.203500
     63 H141        -4.5580    -5.8170    -2.0790 h1         1 BIZ       0.058950
     64 H142        -5.2070    -6.6580    -0.6360 h1         1 BIZ       0.058950
     65 H15         -3.2680    -7.7540    -2.4180 hc         1 BIZ       0.067200
     66 H181        -3.8560   -10.0250    -1.4420 hc         1 BIZ       0.041200
     67 H182        -3.7350    -8.7600    -0.2110 hc         1 BIZ       0.041200
     68 H183        -5.3230    -9.3220    -0.7590 hc         1 BIZ       0.041200
     69 H19         -8.1990    -7.5280    -4.5790 ha         1 BIZ       0.161500
     70 HO2         -7.4640   -10.0150    -7.0360 ho         1 BIZ       0.452500
     71 H25         -3.2450   -11.6950    -6.2460 h4         1 BIZ       0.213000
     72 H261        -1.5040   -10.6270    -4.4890 hc         1 BIZ       0.037033
     73 H262        -1.9860    -9.1670    -3.6300 hc         1 BIZ       0.037033
     74 H263        -2.3670   -10.7710    -2.9580 hc         1 BIZ       0.037033
     75 HN7         -5.6150   -11.0830    -7.0560 hn         1 BIZ       0.346500
     76 H5          -4.6360     1.0630     3.5160 hn         1 BIZ       0.142500
     77 H9          -3.2410     2.5830     4.4920 ha         1 BIZ       0.112000
     78 H11         -7.1520     4.5270     6.9550 ha         1 BIZ       0.123000
     79 H12         -7.5050     2.6140     5.4170 ha         1 BIZ       0.140500
     80 H13         -5.1580     6.1970     7.9740 hn         1 BIZ       0.373500
     81 H16         -1.8140     4.5750     5.9690 ha         1 BIZ       0.203500
     82 H4'1        -0.0470     5.6690     6.2760 h1         1 BIZ       0.058950
     83 H4'2        -1.1560     6.7810     5.4130 h1         1 BIZ       0.058950
     84 H17          1.6640     7.1470     5.6270 hc         1 BIZ       0.067200
     85 H8'1         1.2590     9.5710     4.9800 hc         1 BIZ       0.041200
     86 H8'2         0.2940     8.4360     4.0270 hc         1 BIZ       0.041200
     87 H8'3        -0.4530     9.3550     5.3450 hc         1 BIZ       0.041200
     88 H20         -0.9210     8.0690    10.2640 ha         1 BIZ       0.161500
     89 H21          1.7460    10.0340    11.6020 ho         1 BIZ       0.452500
     90 H22          4.9770    10.5750     8.3590 h4         1 BIZ       0.213000
     91 H6'1         5.0000     9.2380     6.0200 hc         1 BIZ       0.037033
     92 H6'2         3.7350     8.0450     5.7360 hc         1 BIZ       0.037033
     93 H6'3         3.4860     9.7470     5.2720 hc         1 BIZ       0.037033
     94 H23          3.4650    10.5550    10.4470 hn         1 BIZ       0.346500
@<TRIPOS>BOND
     1     1     2 2   
     2     1     3 1   
     3     1    30 1   
     4     3     4 1   
     5     3    57 1   
     6     4     5 ar  
     7     4     9 ar  
     8     5     6 ar  
     9     5    58 1   
    10     6     7 ar  
    11     6    12 1   
    12     7     8 ar  
    13     7    10 1   
    14     8     9 ar  
    15     8    59 1   
    16     9    60 1   
    17    10    11 1   
    18    10    61 1   
    19    11    12 2   
    20    11    13 1   
    21    12    62 1   
    22    13    14 2   
    23    13    15 1   
    24    15    16 1   
    25    15    19 1   
    26    16    17 1   
    27    16    63 1   
    28    16    64 1   
    29    17    18 1   
    30    17    20 1   
    31    17    65 1   
    32    18    19 ar  
    33    18    25 ar  
    34    19    21 ar  
    35    20    66 1   
    36    20    67 1   
    37    20    68 1   
    38    21    22 ar  
    39    21    69 1   
    40    22    23 1   
    41    22    24 ar  
    42    23    70 1   
    43    24    25 ar  
    44    24    29 1   
    45    25    26 1   
    46    26    27 2   
    47    26    28 1   
    48    27    29 1   
    49    27    71 1   
    50    28    72 1   
    51    28    73 1   
    52    28    74 1   
    53    29    75 1   
    54    30    31 1   
    55    30    76 1   
    56    31    32 ar  
    57    31    36 ar  
    58    32    33 ar  
    59    32    77 1   
    60    33    34 ar  
    61    33    39 1   
    62    34    35 ar  
    63    34    37 1   
    64    35    36 ar  
    65    35    78 1   
    66    36    79 1   
    67    37    38 1   
    68    37    80 1   
    69    38    39 2   
    70    38    40 1   
    71    39    81 1   
    72    40    41 2   
    73    40    42 1   
    74    42    43 1   
    75    42    46 1   
    76    43    44 1   
    77    43    82 1   
    78    43    83 1   
    79    44    45 1   
    80    44    47 1   
    81    44    84 1   
    82    45    46 ar  
    83    45    52 ar  
    84    46    48 ar  
    85    47    85 1   
    86    47    86 1   
    87    47    87 1   
    88    48    49 ar  
    89    48    88 1   
    90    49    50 1   
    91    49    51 ar  
    92    50    89 1   
    93    51    52 ar  
    94    51    56 1   
    95    52    53 1   
    96    53    54 2   
    97    53    55 1   
    98    54    56 1   
    99    54    90 1   
   100    55    91 1   
   101    55    92 1   
   102    55    93 1   
   103    56    94 1   
@<TRIPOS>SUBSTRUCTURE
     1 BIZ         1 TEMP              0 ****  ****    0 ROOT
