@<TRIPOS>MOLECULE
BJ2
   55    56     1     0     0
SMALL
abcg2


@<TRIPOS>ATOM
      1 C01          1.3930     3.0040    -0.7740 c3         1 BJ2      -0.113100
      2 C02          0.6520     1.7510    -0.2890 c3         1 BJ2       0.112500
      3 C04         -1.6870     2.4330    -0.1380 c3         1 BJ2       0.027500
      4 C05         -2.0880     3.9140     0.0550 c          1 BJ2       0.699000
      5 C08         -2.8600     1.5420     0.3090 c5         1 BJ2       0.143700
      6 C09         -3.2250     1.7580     1.7870 c5         1 BJ2      -0.086400
      7 C10         -3.4390     0.3600     2.3570 c5         1 BJ2      -0.097400
      8 C11         -2.4380    -0.4660     1.5670 c5         1 BJ2       0.103000
      9 C15         -2.0070    -1.9970    -0.8980 c3         1 BJ2       0.104500
     10 C17         -0.5230    -2.1430    -0.5450 c3         1 BJ2      -0.251400
     11 C18         -0.0550    -3.5860    -0.2730 c          1 BJ2       0.710000
     12 C21          1.6290     0.8360     0.4420 c          1 BJ2       0.619100
     13 C24          2.4180    -0.0840    -1.7520 c5         1 BJ2       0.118000
     14 C25          3.1240    -1.4160    -1.9580 c5         1 BJ2      -0.110400
     15 C26          4.1690    -1.4120    -0.8510 c5         1 BJ2      -0.067400
     16 C27          3.4410    -0.7680     0.3360 c5         1 BJ2      -0.015300
     17 C28          4.4330     0.0050     1.2230 c          1 BJ2       0.730000
     18 N03         -0.4810     2.0390     0.5580 n7         1 BJ2      -0.859400
     19 N12         -2.5310     0.1150     0.2380 n          1 BJ2      -0.390800
     20 N16         -2.3870    -2.6120    -2.1580 n8         1 BJ2      -1.004200
     21 N23          2.4440     0.0780    -0.3060 n          1 BJ2      -0.380800
     22 O06         -3.0940     4.2890    -0.5830 o          1 BJ2      -0.749500
     23 O07         -1.3990     4.6060     0.8300 o          1 BJ2      -0.749500
     24 O14         -2.5190     0.0660    -2.0070 o          1 BJ2      -0.663100
     25 O19          1.1670    -3.7370    -0.0770 o          1 BJ2      -0.751000
     26 O20         -0.9200    -4.4880    -0.2560 o          1 BJ2      -0.751000
     27 O22          1.6830     0.8190     1.6670 o          1 BJ2      -0.609100
     28 H011         1.8040     3.5570     0.0730 hc         1 BJ2       0.030367
     29 H013         2.2150     2.7720    -1.4510 hc         1 BJ2       0.030367
     30 H012         0.7050     3.6650    -1.3030 hc         1 BJ2       0.030367
     31 H021         0.2680     1.2260    -1.1670 h1         1 BJ2       0.051700
     32 H041        -1.5560     2.2760    -1.2130 h1         1 BJ2       0.056700
     33 H081        -3.7210     1.7400    -0.3340 h1         1 BJ2       0.060700
     34 H091        -2.3970     2.2390     2.3120 hc         1 BJ2       0.051700
     35 H092        -4.0940     2.4060     1.8920 hc         1 BJ2       0.051700
     36 H101        -3.2690     0.3040     3.4330 hc         1 BJ2       0.017200
     37 H102        -4.4530     0.0040     2.1580 hc         1 BJ2       0.017200
     38 H112        -1.4270    -0.3360     1.9650 h1         1 BJ2       0.061200
     39 H111        -2.6710    -1.5290     1.5690 h1         1 BJ2       0.061200
     40 H151        -2.5920    -2.4920    -0.1200 h1         1 BJ2       0.065700
     41 H172         0.0790    -1.7290    -1.3610 hc         1 BJ2       0.051700
     42 H171        -0.2580    -1.5380     0.3290 hc         1 BJ2       0.051700
     43 H242         2.9540     0.7280    -2.2540 h1         1 BJ2       0.019200
     44 H241         1.3990    -0.1020    -2.1420 h1         1 BJ2       0.019200
     45 H251         2.4190    -2.2320    -1.7940 hc         1 BJ2       0.041700
     46 H252         3.5470    -1.5100    -2.9580 hc         1 BJ2       0.041700
     47 H262         4.5420    -2.4060    -0.6090 hc         1 BJ2       0.028200
     48 H261         5.0240    -0.7970    -1.1490 hc         1 BJ2       0.028200
     49 H271         2.9330    -1.5450     0.9150 h1         1 BJ2       0.078700
     50 H031        -0.2430     2.7680     1.2190 hn         1 BJ2       0.441000
     51 H162        -1.8540    -2.1920    -2.9100 hn         1 BJ2       0.395500
     52 H161        -2.0970    -3.5810    -2.1080 hn         1 BJ2       0.395500
     53 C13         -2.3810    -0.5190    -0.9330 c          1 BJ2       0.604100
     54 O29          4.9040    -0.6330     2.1880 o          1 BJ2      -0.750000
     55 O30          4.7350     1.1580     0.8680 o          1 BJ2      -0.750000
@<TRIPOS>BOND
     1     1     2 1   
     2     1    28 1   
     3     1    29 1   
     4     1    30 1   
     5     2    12 1   
     6     2    18 1   
     7     2    31 1   
     8     3     4 1   
     9     3     5 1   
    10     3    18 1   
    11     3    32 1   
    12     4    22 1   
    13     4    23 1   
    14     5     6 1   
    15     5    19 1   
    16     5    33 1   
    17     6     7 1   
    18     6    34 1   
    19     6    35 1   
    20     7     8 1   
    21     7    36 1   
    22     7    37 1   
    23     8    19 1   
    24     8    38 1   
    25     8    39 1   
    26     9    10 1   
    27     9    20 1   
    28     9    40 1   
    29     9    53 1   
    30    10    11 1   
    31    10    41 1   
    32    10    42 1   
    33    11    25 1   
    34    11    26 1   
    35    12    21 1   
    36    12    27 2   
    37    13    14 1   
    38    13    21 1   
    39    13    43 1   
    40    13    44 1   
    41    14    15 1   
    42    14    45 1   
    43    14    46 1   
    44    15    16 1   
    45    15    47 1   
    46    15    48 1   
    47    16    17 1   
    48    16    21 1   
    49    16    49 1   
    50    17    54 1   
    51    17    55 1   
    52    18    50 1   
    53    19    53 1   
    54    20    51 1   
    55    20    52 1   
    56    24    53 2   
@<TRIPOS>SUBSTRUCTURE
     1 BJ2         1 TEMP              0 ****  ****    0 ROOT
