@<TRIPOS>MOLECULE
BJ2
   55    56     1     0     0
SMALL
No Charge or Current Charge


@<TRIPOS>ATOM
      1 C01          1.2820     2.9240    -0.8680 c3         1 BJ2      -0.113100
      2 C02          0.7450     1.6270    -0.2150 c3         1 BJ2       0.112500
      3 C04         -1.6840     2.4480     0.0300 c3         1 BJ2       0.027500
      4 C05         -1.9750     3.9770     0.2750 c          1 BJ2       0.699000
      5 C08         -2.9350     1.5970     0.4190 c5         1 BJ2       0.143700
      6 C09         -3.2940     1.7010     1.9340 c5         1 BJ2      -0.086400
      7 C10         -4.0950     0.4020     2.1640 c5         1 BJ2      -0.097400
      8 C11         -3.1950    -0.6350     1.4470 c5         1 BJ2       0.103000
      9 C15         -2.1180    -2.0070    -1.0500 c3         1 BJ2       0.104500
     10 C17         -0.6960    -2.2360    -0.4730 c3         1 BJ2      -0.251400
     11 C18         -0.5750    -3.6510     0.0970 c          1 BJ2       0.710000
     12 C21          1.9190     0.8360     0.4940 c          1 BJ2       0.619100
     13 C24          2.6020    -0.2080    -1.7420 c5         1 BJ2       0.118000
     14 C25          3.5100    -1.4450    -1.9590 c5         1 BJ2      -0.110400
     15 C26          4.7130    -1.1230    -1.0420 c5         1 BJ2      -0.067400
     16 C27          4.0030    -0.6310     0.2550 c5         1 BJ2      -0.015300
     17 C28          4.9950     0.2540     1.0900 c          1 BJ2       0.730000
     18 N03         -0.4130     1.9460     0.6830 n7         1 BJ2      -0.859400
     19 N12         -2.7450     0.1290     0.2600 n          1 BJ2      -0.390800
     20 N16         -2.2110    -2.6810    -2.3870 n8         1 BJ2      -1.004200
     21 N23          2.7970     0.0590    -0.3020 n          1 BJ2      -0.380800
     22 O06         -2.6950     4.5660    -0.5200 o          1 BJ2      -0.749500
     23 O07         -1.4130     4.5410     1.2070 o          1 BJ2      -0.749500
     24 O14         -2.6540     0.1870    -2.0330 o          1 BJ2      -0.663100
     25 O19         -0.1930    -4.5400    -0.6460 o          1 BJ2      -0.751000
     26 O20         -0.9200    -3.8350     1.2540 o          1 BJ2      -0.751000
     27 O22          2.0810     0.8880     1.7120 o          1 BJ2      -0.609100
     28 H011         1.6330     3.6270    -0.1030 hc         1 BJ2       0.030367
     29 H013         2.1250     2.7040    -1.5330 hc         1 BJ2       0.030367
     30 H012         0.5100     3.4210    -1.4670 hc         1 BJ2       0.030367
     31 H021         0.3740     0.9790    -1.0170 h1         1 BJ2       0.051700
     32 H041        -1.5850     2.3500    -1.0580 h1         1 BJ2       0.056700
     33 H081        -3.7860     1.9280    -0.1930 h1         1 BJ2       0.060700
     34 H091        -2.4010     1.7210     2.5700 hc         1 BJ2       0.051700
     35 H092        -3.8770     2.6000     2.1640 hc         1 BJ2       0.051700
     36 H101        -4.2380     0.1720     3.2250 hc         1 BJ2       0.017200
     37 H102        -5.0870     0.4590     1.6990 hc         1 BJ2       0.017200
     38 H112        -2.3370    -0.9250     2.0690 h1         1 BJ2       0.061200
     39 H111        -3.7660    -1.5360     1.1930 h1         1 BJ2       0.061200
     40 H151        -2.8210    -2.5360    -0.3940 h1         1 BJ2       0.065700
     41 H172         0.0180    -2.0810    -1.2900 hc         1 BJ2       0.051700
     42 H171        -0.5740    -1.5140     0.3430 hc         1 BJ2       0.051700
     43 H242         2.9390     0.6460    -2.3430 h1         1 BJ2       0.019200
     44 H241         1.5610    -0.4350    -2.0010 h1         1 BJ2       0.019200
     45 H251         3.0050    -2.3650    -1.6390 hc         1 BJ2       0.041700
     46 H252         3.7970    -1.5750    -3.0080 hc         1 BJ2       0.041700
     47 H262         5.3560    -1.9920    -0.8630 hc         1 BJ2       0.028200
     48 H261         5.3380    -0.3390    -1.4870 hc         1 BJ2       0.028200
     49 H271         3.6930    -1.4790     0.8790 h1         1 BJ2       0.078700
     50 H031        -0.1200     2.6490     1.3760 hn         1 BJ2       0.441000
     51 H162        -1.7050    -2.1100    -3.0730 hn         1 BJ2       0.395500
     52 H161        -1.6670    -3.5510    -2.3430 hn         1 BJ2       0.395500
     53 C13         -2.5480    -0.4770    -1.0020 c          1 BJ2       0.604100
     54 O29          5.4570    -0.2020     2.1280 o          1 BJ2      -0.750000
     55 O30          5.2850     1.3800     0.7040 o          1 BJ2      -0.750000
@<TRIPOS>BOND
     1     1     2 1   
     2     1    28 1   
     3     1    29 1   
     4     1    30 1   
     5     2    12 1   
     6     2    18 1   
     7     2    31 1   
     8     3     4 1   
     9     3     5 1   
    10     3    18 1   
    11     3    32 1   
    12     4    22 1   
    13     4    23 1   
    14     5     6 1   
    15     5    19 1   
    16     5    33 1   
    17     6     7 1   
    18     6    34 1   
    19     6    35 1   
    20     7     8 1   
    21     7    36 1   
    22     7    37 1   
    23     8    19 1   
    24     8    38 1   
    25     8    39 1   
    26     9    10 1   
    27     9    20 1   
    28     9    40 1   
    29     9    53 1   
    30    10    11 1   
    31    10    41 1   
    32    10    42 1   
    33    11    25 1   
    34    11    26 1   
    35    12    21 1   
    36    12    27 2   
    37    13    14 1   
    38    13    21 1   
    39    13    43 1   
    40    13    44 1   
    41    14    15 1   
    42    14    45 1   
    43    14    46 1   
    44    15    16 1   
    45    15    47 1   
    46    15    48 1   
    47    16    17 1   
    48    16    21 1   
    49    16    49 1   
    50    17    54 1   
    51    17    55 1   
    52    18    50 1   
    53    19    53 1   
    54    20    51 1   
    55    20    52 1   
    56    24    53 2   
@<TRIPOS>SUBSTRUCTURE
     1 BJ2         1 TEMP              0 ****  ****    0 ROOT
