@<TRIPOS>MOLECULE
BJ4
   34    36     1     0     0
SMALL
No Charge or Current Charge


@<TRIPOS>ATOM
      1 CAA          3.2770     3.5540    -0.3260 c3         1 BJ4       0.142900
      2 OAB          2.3380     2.4710    -0.2140 os         1 BJ4      -0.309100
      3 CAC          2.7310     1.1440    -0.1030 ca         1 BJ4       0.152100
      4 CAD          4.1010     0.7880    -0.0950 ca         1 BJ4      -0.180000
      5 CAE          4.4810    -0.5560     0.0180 ca         1 BJ4      -0.091000
      6 CAF          3.5030    -1.5520     0.1250 ca         1 BJ4      -0.081000
      7 CAG          2.1350    -1.2090     0.1170 ca         1 BJ4      -0.170600
      8 CAH          1.7260     0.1390     0.0030 ca         1 BJ4       0.160400
      9 NAI          0.3660     0.5350    -0.0110 nc         1 BJ4      -0.606100
     10 CAJ         -0.5070    -0.4720     0.0850 cd         1 BJ4       0.550500
     11 NAK         -0.1680    -1.7880     0.2100 ns         1 BJ4      -0.426400
     12 CAL          1.0950    -2.2600     0.2350 c          1 BJ4       0.575600
     13 OAM          1.3320    -3.4530     0.3500 o          1 BJ4      -0.540000
     14 CAN         -1.9530    -0.1380     0.0820 ca         1 BJ4      -0.153900
     15 CAO         -2.4030     1.1410     0.4870 ca         1 BJ4      -0.069500
     16 CAP         -3.7690     1.4690     0.4530 ca         1 BJ4      -0.120500
     17 CAQ         -4.7150     0.5340    -0.0010 ca         1 BJ4      -0.051300
     18 CAR         -6.1920     0.8920    -0.0440 c3         1 BJ4      -0.051800
     19 CAS         -4.2770    -0.7290    -0.4330 ca         1 BJ4      -0.120500
     20 CAT         -2.9120    -1.0620    -0.4000 ca         1 BJ4      -0.069500
     21 HAA          3.9290     3.5980     0.5550 h1         1 BJ4       0.042033
     22 HAAA         3.8990     3.4400    -1.2230 h1         1 BJ4       0.042033
     23 HAAB         2.7450     4.5110    -0.4020 h1         1 BJ4       0.042033
     24 HAD          4.8820     1.5380    -0.1750 ha         1 BJ4       0.120000
     25 HAE          5.5350    -0.8270     0.0250 ha         1 BJ4       0.117000
     26 HAF          3.8110    -2.5930     0.2140 ha         1 BJ4       0.138000
     27 HNAK        -0.8930    -2.4800     0.3120 hn         1 BJ4       0.330500
     28 HAO         -1.6960     1.8880     0.8450 ha         1 BJ4       0.127000
     29 HAP         -4.0920     2.4550     0.7790 ha         1 BJ4       0.117000
     30 HAR         -6.4580     1.3400    -1.0090 hc         1 BJ4       0.046700
     31 HARA        -6.8230     0.0070     0.1010 hc         1 BJ4       0.046700
     32 HARB        -6.4520     1.6120     0.7420 hc         1 BJ4       0.046700
     33 HAS         -4.9960    -1.4560    -0.8040 ha         1 BJ4       0.117000
     34 HAT         -2.6100    -2.0420    -0.7650 ha         1 BJ4       0.127000
@<TRIPOS>BOND
     1     1     2 1   
     2     1    21 1   
     3     1    22 1   
     4     1    23 1   
     5     2     3 1   
     6     3     4 ar  
     7     3     8 ar  
     8     4     5 ar  
     9     4    24 1   
    10     5     6 ar  
    11     5    25 1   
    12     6     7 ar  
    13     6    26 1   
    14     7     8 ar  
    15     7    12 1   
    16     8     9 1   
    17     9    10 2   
    18    10    11 1   
    19    10    14 1   
    20    11    12 1   
    21    11    27 1   
    22    12    13 2   
    23    14    15 ar  
    24    14    20 ar  
    25    15    16 ar  
    26    15    28 1   
    27    16    17 ar  
    28    16    29 1   
    29    17    18 1   
    30    17    19 ar  
    31    18    30 1   
    32    18    31 1   
    33    18    32 1   
    34    19    20 ar  
    35    19    33 1   
    36    20    34 1   
@<TRIPOS>SUBSTRUCTURE
     1 BJ4         1 TEMP              0 ****  ****    0 ROOT
