@<TRIPOS>MOLECULE
BJ4
   34    36     1     0     0
SMALL
bcc


@<TRIPOS>ATOM
      1 CAA          3.1040     3.4680    -0.1900 c3         1 BJ4       0.119700
      2 OAB          2.1890     2.3890    -0.1390 os         1 BJ4      -0.285900
      3 CAC          2.6760     1.1440    -0.0820 ca         1 BJ4       0.152100
      4 CAD          4.0210     0.8190    -0.0850 ca         1 BJ4      -0.198000
      5 CAE          4.4330    -0.5170    -0.0170 ca         1 BJ4      -0.109000
      6 CAF          3.5150    -1.5360     0.0580 ca         1 BJ4      -0.099000
      7 CAG          2.1530    -1.2200     0.0610 ca         1 BJ4      -0.170600
      8 CAH          1.7110     0.1070    -0.0130 ca         1 BJ4       0.160400
      9 NAI          0.3870     0.4500    -0.0300 nc         1 BJ4      -0.606100
     10 CAJ         -0.4900    -0.4880     0.0530 cd         1 BJ4       0.550500
     11 NAK         -0.1420    -1.8050     0.1630 ns         1 BJ4      -0.493400
     12 CAL          1.1510    -2.2740     0.1610 c          1 BJ4       0.718100
     13 OAM          1.3880    -3.4650     0.2510 o          1 BJ4      -0.615500
     14 CAN         -1.9240    -0.1530     0.0330 ca         1 BJ4      -0.153900
     15 CAO         -2.3150     1.1620     0.2900 ca         1 BJ4      -0.087500
     16 CAP         -3.6520     1.5140     0.2770 ca         1 BJ4      -0.138500
     17 CAQ         -4.6450     0.5730     0.0020 ca         1 BJ4      -0.051300
     18 CAR         -6.0900     0.9670    -0.0400 c3         1 BJ4      -0.051800
     19 CAS         -4.2490    -0.7360    -0.2590 ca         1 BJ4      -0.138500
     20 CAT         -2.9110    -1.0980    -0.2450 ca         1 BJ4      -0.087500
     21 HAA          3.7470     3.4990     0.6930 h1         1 BJ4       0.042033
     22 HAAA         3.7300     3.4300    -1.0850 h1         1 BJ4       0.042033
     23 HAAB         2.5060     4.3750    -0.2190 h1         1 BJ4       0.042033
     24 HAD          4.7780     1.5890    -0.1370 ha         1 BJ4       0.138000
     25 HAE          5.4920    -0.7360    -0.0220 ha         1 BJ4       0.135000
     26 HAF          3.8320    -2.5680     0.1150 ha         1 BJ4       0.156000
     27 HNAK        -0.8640    -2.5030     0.2790 hn         1 BJ4       0.330500
     28 HAO         -1.5620     1.9070     0.5070 ha         1 BJ4       0.145000
     29 HAP         -3.9300     2.5380     0.4910 ha         1 BJ4       0.135000
     30 HAR         -6.3580     1.3380    -1.0310 hc         1 BJ4       0.046700
     31 HARA        -6.7430     0.1230     0.1780 hc         1 BJ4       0.046700
     32 HARB        -6.3090     1.7620     0.6720 hc         1 BJ4       0.046700
     33 HAS         -4.9950    -1.4900    -0.4790 ha         1 BJ4       0.135000
     34 HAT         -2.6640    -2.1260    -0.4780 ha         1 BJ4       0.145000
@<TRIPOS>BOND
     1     1     2 1   
     2     1    21 1   
     3     1    22 1   
     4     1    23 1   
     5     2     3 1   
     6     3     4 ar  
     7     3     8 ar  
     8     4     5 ar  
     9     4    24 1   
    10     5     6 ar  
    11     5    25 1   
    12     6     7 ar  
    13     6    26 1   
    14     7     8 ar  
    15     7    12 1   
    16     8     9 1   
    17     9    10 2   
    18    10    11 1   
    19    10    14 1   
    20    11    12 1   
    21    11    27 1   
    22    12    13 2   
    23    14    15 ar  
    24    14    20 ar  
    25    15    16 ar  
    26    15    28 1   
    27    16    17 ar  
    28    16    29 1   
    29    17    18 1   
    30    17    19 ar  
    31    18    30 1   
    32    18    31 1   
    33    18    32 1   
    34    19    20 ar  
    35    19    33 1   
    36    20    34 1   
@<TRIPOS>SUBSTRUCTURE
     1 BJ4         1 TEMP              0 ****  ****    0 ROOT
