@<TRIPOS>MOLECULE
BJ6
   36    38     1     0     0
SMALL
bcc


@<TRIPOS>ATOM
      1 C4         -12.4810    15.7680     0.5680 ca         1 BJ6      -0.107000
      2 C5         -11.3980    15.5540    -1.5710 ca         1 BJ6      -0.136000
      3 C6         -11.7780    15.0050    -0.3520 ca         1 BJ6      -0.140500
      4 C7         -14.5480    17.5840     2.1200 cc         1 BJ6       0.183900
      5 C10        -13.5630    17.9120     1.2390 cd         1 BJ6       0.300500
      6 C13        -16.5140    15.0090     4.0090 ca         1 BJ6      -0.136500
      7 C15        -15.7720    16.1460     3.7270 ca         1 BJ6      -0.106000
      8 C17        -15.3210    16.3890     2.4270 ca         1 BJ6      -0.100500
      9 C20        -15.6720    23.1340     3.1170 c          1 BJ6       0.932600
     10 C1         -12.4240    17.6370    -0.9400 ca         1 BJ6      -0.107000
     11 C12        -16.8150    14.0990     3.0050 ca         1 BJ6      -0.132000
     12 C14        -16.3770    14.3390     1.7080 ca         1 BJ6      -0.136500
     13 C16        -15.6430    15.4780     1.4190 ca         1 BJ6      -0.106000
     14 C19        -15.5430    21.6720     2.6360 c3         1 BJ6      -0.212400
     15 C2         -12.8260    17.0890     0.2790 ca         1 BJ6      -0.096500
     16 C3         -11.7200    16.8740    -1.8590 ca         1 BJ6      -0.140500
     17 C9         -14.0510    19.6790     2.3240 cc         1 BJ6       0.535700
     18 N11        -13.2790    19.2560     1.3830 nd         1 BJ6      -0.708000
     19 O21        -14.6210    23.7370     3.4090 o          1 BJ6      -0.838800
     20 O22        -16.8320    23.5880     3.1480 o          1 BJ6      -0.838800
     21 O8         -14.8420    18.7150     2.8170 os         1 BJ6      -0.340800
     22 H1         -12.7510    15.3340     1.5220 ha         1 BJ6       0.144000
     23 H2         -10.8500    14.9580    -2.2890 ha         1 BJ6       0.119000
     24 H3         -11.5180    13.9830    -0.1130 ha         1 BJ6       0.123000
     25 H4         -16.8530    14.8320     5.0210 ha         1 BJ6       0.126000
     26 H5         -15.5360    16.8380     4.5250 ha         1 BJ6       0.144000
     27 H6         -12.6720    18.6650    -1.1710 ha         1 BJ6       0.144000
     28 H7         -17.3920    13.2110     3.2290 ha         1 BJ6       0.122000
     29 H8         -16.6180    13.6430     0.9150 ha         1 BJ6       0.126000
     30 H9         -15.3290    15.6660     0.4000 ha         1 BJ6       0.144000
     31 H10        -13.9500    21.0270     3.9470 hc         1 BJ6       0.076200
     32 H11        -13.3920    21.6530     2.4080 hc         1 BJ6       0.076200
     33 H12        -15.7710    21.6460     1.5650 hc         1 BJ6       0.028200
     34 H13        -16.3210    21.0720     3.1160 hc         1 BJ6       0.028200
     35 H14        -11.4220    17.3120    -2.8030 ha         1 BJ6       0.123000
     36 C18        -14.1680    21.0490     2.8760 c3         1 BJ6      -0.094700
@<TRIPOS>BOND
     1     1     3 ar  
     2     1    15 ar  
     3     1    22 1   
     4     2     3 ar  
     5     2    16 ar  
     6     2    23 1   
     7     3    24 1   
     8     4     5 2   
     9     4     8 1   
    10     4    21 1   
    11     5    15 1   
    12     5    18 1   
    13     6     7 ar  
    14     6    11 ar  
    15     6    25 1   
    16     7     8 ar  
    17     7    26 1   
    18     8    13 ar  
    19     9    14 1   
    20     9    19 1   
    21     9    20 1   
    22    10    15 ar  
    23    10    16 ar  
    24    10    27 1   
    25    11    12 ar  
    26    11    28 1   
    27    12    13 ar  
    28    12    29 1   
    29    13    30 1   
    30    14    33 1   
    31    14    34 1   
    32    14    36 1   
    33    16    35 1   
    34    17    18 2   
    35    17    21 1   
    36    17    36 1   
    37    31    36 1   
    38    32    36 1   
@<TRIPOS>SUBSTRUCTURE
     1 BJ6         1 TEMP              0 ****  ****    0 ROOT
