@<TRIPOS>MOLECULE
BJ6
   36    38     1     0     0
SMALL
No Charge or Current Charge


@<TRIPOS>ATOM
      1 C4         -12.8360    15.6790     0.5340 ca         1 BJ6      -0.089000
      2 C5         -11.3810    15.4770    -1.4080 ca         1 BJ6      -0.118000
      3 C6         -12.0840    14.8850    -0.3490 ca         1 BJ6      -0.122500
      4 C7         -14.6160    17.6450     2.2580 cc         1 BJ6       0.139500
      5 C10        -13.6750    17.9540     1.2960 cd         1 BJ6       0.300500
      6 C13        -16.0470    14.6010     3.9750 ca         1 BJ6      -0.118500
      7 C15        -15.3760    15.8180     3.7620 ca         1 BJ6      -0.088000
      8 C17        -15.3000    16.3710     2.4680 ca         1 BJ6      -0.100500
      9 C20        -15.6370    23.3140     2.8980 c          1 BJ6       0.722000
     10 C1         -12.1700    17.6640    -0.6910 ca         1 BJ6      -0.089000
     11 C12        -16.6560    13.9350     2.8980 ca         1 BJ6      -0.114000
     12 C14        -16.5980    14.4890     1.6080 ca         1 BJ6      -0.118500
     13 C16        -15.9280    15.7060     1.3940 ca         1 BJ6      -0.088000
     14 C19        -15.5850    21.8890     2.3270 c3         1 BJ6      -0.212400
     15 C2         -12.9150    17.0810     0.3620 ca         1 BJ6      -0.096500
     16 C3         -11.4190    16.8690    -1.5740 ca         1 BJ6      -0.122500
     17 C9         -14.2200    19.7240     2.3720 cc         1 BJ6       0.491300
     18 N11        -13.4230    19.3130     1.3930 nd         1 BJ6      -0.708000
     19 O21        -15.0420    24.1960     2.2990 o          1 BJ6      -0.733500
     20 O22        -16.2170    23.4870     3.9590 o          1 BJ6      -0.733500
     21 O8         -14.9790    18.7510     2.9480 os         1 BJ6      -0.252000
     22 H1         -13.3290    15.1860     1.3670 ha         1 BJ6       0.126000
     23 H2         -10.7970    14.8610    -2.0890 ha         1 BJ6       0.101000
     24 H3         -12.0380    13.8080    -0.2030 ha         1 BJ6       0.105000
     25 H4         -16.0970    14.1760     4.9750 ha         1 BJ6       0.108000
     26 H5         -14.9100    16.3300     4.6010 ha         1 BJ6       0.126000
     27 H6         -12.1830    18.7420    -0.8420 ha         1 BJ6       0.126000
     28 H7         -17.1750    12.9940     3.0630 ha         1 BJ6       0.104000
     29 H8         -17.0750    13.9780     0.7750 ha         1 BJ6       0.108000
     30 H9         -15.8950    16.1320     0.3930 ha         1 BJ6       0.126000
     31 H10        -14.3960    21.1100     3.9770 hc         1 BJ6       0.076200
     32 H11        -13.4370    21.6900     2.6270 hc         1 BJ6       0.076200
     33 H12        -15.4560    21.9170     1.2380 hc         1 BJ6       0.028200
     34 H13        -16.4600    21.3130     2.6530 hc         1 BJ6       0.028200
     35 H14        -10.8650    17.3340    -2.3860 ha         1 BJ6       0.105000
     36 C18        -14.3470    21.1330     2.8820 c3         1 BJ6      -0.094700
@<TRIPOS>BOND
     1     1     3 ar  
     2     1    15 ar  
     3     1    22 1   
     4     2     3 ar  
     5     2    16 ar  
     6     2    23 1   
     7     3    24 1   
     8     4     5 2   
     9     4     8 1   
    10     4    21 1   
    11     5    15 1   
    12     5    18 1   
    13     6     7 ar  
    14     6    11 ar  
    15     6    25 1   
    16     7     8 ar  
    17     7    26 1   
    18     8    13 ar  
    19     9    14 1   
    20     9    19 1   
    21     9    20 1   
    22    10    15 ar  
    23    10    16 ar  
    24    10    27 1   
    25    11    12 ar  
    26    11    28 1   
    27    12    13 ar  
    28    12    29 1   
    29    13    30 1   
    30    14    33 1   
    31    14    34 1   
    32    14    36 1   
    33    16    35 1   
    34    17    18 2   
    35    17    21 1   
    36    17    36 1   
    37    31    36 1   
    38    32    36 1   
@<TRIPOS>SUBSTRUCTURE
     1 BJ6         1 TEMP              0 ****  ****    0 ROOT
