@<TRIPOS>MOLECULE
BJ9
   57    58     1     0     0
SMALL
bcc


@<TRIPOS>ATOM
      1 C10        128.8000    96.7910    92.1520 c5         1 BJ9       0.106100
      2 C15        127.9150    98.8610    95.9800 c          1 BJ9       0.872600
      3 C21        130.9300    95.7470    97.5430 c3         1 BJ9       0.092500
      4 C22        130.4360    95.2190    98.8940 c3         1 BJ9       0.128100
      5 C26        134.1180    92.1980    99.9180 c          1 BJ9       0.761100
      6 C01        127.8940    99.7630    91.7670 cc         1 BJ9       0.089600
      7 C02        127.9040   100.9290    91.0870 cd         1 BJ9      -0.274400
      8 C03        127.2370   100.9540    89.7960 c          1 BJ9       0.741700
      9 C06        126.6150    98.5640    90.1500 c          1 BJ9       0.835500
     10 C09        127.4010    97.3990    92.1520 c5         1 BJ9       0.309500
     11 C11        128.7700    95.9850    93.4490 c5         1 BJ9       0.095100
     12 C12        127.9680    96.9220    94.3590 c5         1 BJ9       0.095100
     13 C14        128.8280    97.8940    95.1690 c3         1 BJ9       0.086700
     14 C23        131.5660    94.7670    99.8220 c3         1 BJ9       0.105100
     15 C34        128.6020   102.1320    91.7170 c          1 BJ9       0.914800
     16 N05        126.6280    99.7430    89.4620 ns         1 BJ9      -0.608500
     17 N08        127.2910    98.6120    91.3520 n          1 BJ9      -0.376000
     18 N18        129.7880    97.2270    96.0280 ns         1 BJ9      -0.491900
     19 N28        135.0260    92.0030   100.8880 nt         1 BJ9      -0.663000
     20 N31        131.8410    96.8710    97.6320 n8         1 BJ9      -0.934800
     21 O07        126.0580    97.5720    89.7270 o          1 BJ9      -0.605500
     22 O13        127.1220    97.6910    93.4880 os         1 BJ9      -0.387600
     23 O16        127.8670   100.0380    95.5840 o          1 BJ9      -0.504300
     24 O17        127.3110    98.3500    96.9410 o          1 BJ9      -0.504300
     25 O27        134.0170    91.5350    98.9070 o          1 BJ9      -0.583000
     26 O29        130.9410    94.4080   101.0380 oh         1 BJ9      -0.596800
     27 O30        129.7140    96.2710    99.4890 oh         1 BJ9      -0.596800
     28 O32        128.0990    94.7760    93.2080 oh         1 BJ9      -0.551800
     29 O33        129.0100    96.0850    90.9710 oh         1 BJ9      -0.539800
     30 O35        129.2600   101.8910    92.7490 o          1 BJ9      -0.557300
     31 O36        128.4460   103.2310    91.1640 o          1 BJ9      -0.557300
     32 H101       129.5380    97.5970    92.2800 h1         1 BJ9       0.042700
     33 H211       131.4470    94.9360    97.0220 h1         1 BJ9       0.085700
     34 H221       129.7860    94.3530    98.7070 h1         1 BJ9       0.081700
     35 H011       128.3800    99.7210    92.7310 h4         1 BJ9       0.177000
     36 H091       126.6830    96.6880    91.7370 h2         1 BJ9       0.144700
     37 H111       129.7820    95.8130    93.8350 h1         1 BJ9       0.055700
     38 H121       127.3230    96.3550    95.0290 h1         1 BJ9       0.130700
     39 H141       129.4280    98.4810    94.4680 h1         1 BJ9       0.108700
     40 H231       132.2570    95.6060    99.9780 h1         1 BJ9       0.042700
     41 H051       126.1500    99.7220    88.5690 hn         1 BJ9       0.353500
     42 H181       130.6340    97.7400    96.2480 hn         1 BJ9       0.371500
     43 H281       135.6280    91.2000   100.8410 hn         1 BJ9       0.332500
     44 H282       135.0120    92.5310   101.7430 hn         1 BJ9       0.332500
     45 H311       131.6160    97.4620    98.4240 hn         1 BJ9       0.377800
     46 H1         132.7960    96.5620    97.7460 hn         1 BJ9       0.377800
     47 H291       131.5870    94.4550   101.7490 ho         1 BJ9       0.428000
     48 H301       129.5080    96.0120   100.3940 ho         1 BJ9       0.439000
     49 H321       128.0380    94.3080    94.0480 ho         1 BJ9       0.428000
     50 H331       129.9390    95.8400    90.9170 ho         1 BJ9       0.420000
     51 C19        129.7080    96.0570    96.6590 c          1 BJ9       0.678100
     52 C24        132.3400    93.5950    99.2440 c3         1 BJ9       0.130400
     53 O20        128.8100    95.2280    96.5470 o          1 BJ9      -0.561100
     54 O25        133.3350    93.2480   100.2010 os         1 BJ9      -0.453900
     55 H241       131.6690    92.7510    99.0590 h1         1 BJ9       0.060200
     56 H242       132.8120    93.8680    98.2970 h1         1 BJ9       0.060200
     57 O04        127.1630   101.8700    89.0020 o          1 BJ9      -0.545500
@<TRIPOS>BOND
     1     1    10 1   
     2     1    11 1   
     3     1    29 1   
     4     1    32 1   
     5     2    13 1   
     6     2    23 1   
     7     2    24 1   
     8     3     4 1   
     9     3    20 1   
    10     3    33 1   
    11     3    51 1   
    12     4    14 1   
    13     4    27 1   
    14     4    34 1   
    15     5    19 1   
    16     5    25 2   
    17     5    54 1   
    18     6     7 2   
    19     6    17 1   
    20     6    35 1   
    21     7     8 1   
    22     7    15 1   
    23     8    16 1   
    24     8    57 2   
    25     9    16 1   
    26     9    17 1   
    27     9    21 2   
    28    10    17 1   
    29    10    22 1   
    30    10    36 1   
    31    11    12 1   
    32    11    28 1   
    33    11    37 1   
    34    12    13 1   
    35    12    22 1   
    36    12    38 1   
    37    13    18 1   
    38    13    39 1   
    39    14    26 1   
    40    14    40 1   
    41    14    52 1   
    42    15    30 1   
    43    15    31 1   
    44    16    41 1   
    45    18    42 1   
    46    18    51 1   
    47    19    43 1   
    48    19    44 1   
    49    20    45 1   
    50    20    46 1   
    51    26    47 1   
    52    27    48 1   
    53    28    49 1   
    54    29    50 1   
    55    51    53 2   
    56    52    54 1   
    57    52    55 1   
    58    52    56 1   
@<TRIPOS>SUBSTRUCTURE
     1 BJ9         1 TEMP              0 ****  ****    0 ROOT
