@<TRIPOS>MOLECULE
BJ9
   57    58     1     0     0
SMALL
No Charge or Current Charge


@<TRIPOS>ATOM
      1 C10        129.1880    97.4110    92.1290 c5         1 BJ9       0.113300
      2 C15        127.6840    98.9090    96.5210 c          1 BJ9       0.713000
      3 C21        131.1330    96.0760    97.9580 c3         1 BJ9       0.076500
      4 C22        130.5280    95.1720    99.0830 c3         1 BJ9       0.153300
      5 C26        133.9270    91.5720    99.5890 c          1 BJ9       0.644100
      6 C01        127.8090    99.9450    91.0950 cc         1 BJ9      -0.020400
      7 C02        127.4630   100.7760    90.0410 cd         1 BJ9      -0.328400
      8 C03        126.4790   100.3090    89.0360 c          1 BJ9       0.596200
      9 C06        126.3060    98.2030    90.2800 c          1 BJ9       0.618000
     10 C09        127.6730    97.7470    92.2960 c5         1 BJ9       0.342700
     11 C11        129.5180    96.9010    93.5700 c5         1 BJ9       0.098300
     12 C12        128.3850    97.5460    94.4640 c5         1 BJ9       0.147300
     13 C14        128.8770    98.3640    95.6880 c3         1 BJ9      -0.051300
     14 C23        131.5870    94.4210    99.9460 c3         1 BJ9       0.117300
     15 C34        128.0920   102.1180    89.9520 c          1 BJ9       0.736200
     16 N05        126.0000    99.0570    89.2720 ns         1 BJ9      -0.489500
     17 N08        127.2360    98.6740    91.2170 n          1 BJ9      -0.309000
     18 N18        129.8650    97.7140    96.6040 ns         1 BJ9      -0.434900
     19 N28        134.5140    90.9070   100.5920 nt         1 BJ9      -0.607000
     20 N31        131.8170    97.3000    98.5390 n8         1 BJ9      -1.017200
     21 O07        125.7840    97.1010    90.3370 o          1 BJ9      -0.624000
     22 O13        127.6240    98.3890    93.5750 os         1 BJ9      -0.421000
     23 O16        127.7070   100.0880    96.8470 o          1 BJ9      -0.693000
     24 O17        126.8090    98.1300    96.8780 o          1 BJ9      -0.693000
     25 O27        134.1040    91.3150    98.4130 o          1 BJ9      -0.538000
     26 O29        130.9250    93.7570   101.0400 oh         1 BJ9      -0.662000
     27 O30        129.7300    95.9720    99.9720 oh         1 BJ9      -0.618000
     28 O32        129.4620    95.4650    93.6310 oh         1 BJ9      -0.719000
     29 O33        129.4870    96.3810    91.1790 oh         1 BJ9      -0.687000
     30 O35        128.8950   102.4260    90.8200 o          1 BJ9      -0.709000
     31 O36        127.8080   102.8770    89.0400 o          1 BJ9      -0.709000
     32 H101       129.7720    98.3140    91.9090 h1         1 BJ9       0.059700
     33 H211       131.9020    95.5070    97.4180 h1         1 BJ9       0.053700
     34 H221       129.9000    94.4040    98.6090 h1         1 BJ9       0.074700
     35 H011       128.5020   100.1930    91.8970 h4         1 BJ9       0.263000
     36 H091       127.0520    96.8420    92.2940 h2         1 BJ9       0.096700
     37 H111       130.5130    97.2520    93.8780 h1         1 BJ9       0.038700
     38 H121       127.7090    96.7590    94.8290 h1         1 BJ9       0.105700
     39 H141       129.3870    99.2440    95.2770 h1         1 BJ9       0.055700
     40 H231       132.2950    95.1580   100.3490 h1         1 BJ9       0.038700
     41 H051       125.3290    98.7140    88.6030 hn         1 BJ9       0.299500
     42 H181       130.4800    98.3100    97.1500 hn         1 BJ9       0.328500
     43 H281       135.1430    90.1470   100.3850 hn         1 BJ9       0.323000
     44 H282       134.3220    91.1790   101.5430 hn         1 BJ9       0.323000
     45 H311       131.1970    97.6770    99.2700 hn         1 BJ9       0.406500
     46 H1         132.6430    97.0100    99.0770 hn         1 BJ9       0.406500
     47 H291       131.5420    93.0370   101.3090 ho         1 BJ9       0.444000
     48 H301       129.7050    95.4470   100.8050 ho         1 BJ9       0.446000
     49 H321       129.4460    95.2510    94.6100 ho         1 BJ9       0.509000
     50 H331       129.5880    95.5880    91.7690 ho         1 BJ9       0.488000
     51 C19        130.0390    96.3690    96.8720 c          1 BJ9       0.617100
     52 C24        132.4130    93.3780    99.1450 c3         1 BJ9       0.150600
     53 O20        129.4170    95.4800    96.2970 o          1 BJ9      -0.663100
     54 O25        133.1260    92.5490   100.0900 os         1 BJ9      -0.478100
     55 H241       131.7370    92.7680    98.5290 h1         1 BJ9       0.065200
     56 H242       133.1120    93.8960    98.4750 h1         1 BJ9       0.065200
     57 O04        126.0840   100.9290    88.0630 o          1 BJ9      -0.547000
@<TRIPOS>BOND
     1     1    10 1   
     2     1    11 1   
     3     1    29 1   
     4     1    32 1   
     5     2    13 1   
     6     2    23 1   
     7     2    24 1   
     8     3     4 1   
     9     3    20 1   
    10     3    33 1   
    11     3    51 1   
    12     4    14 1   
    13     4    27 1   
    14     4    34 1   
    15     5    19 1   
    16     5    25 2   
    17     5    54 1   
    18     6     7 2   
    19     6    17 1   
    20     6    35 1   
    21     7     8 1   
    22     7    15 1   
    23     8    16 1   
    24     8    57 2   
    25     9    16 1   
    26     9    17 1   
    27     9    21 2   
    28    10    17 1   
    29    10    22 1   
    30    10    36 1   
    31    11    12 1   
    32    11    28 1   
    33    11    37 1   
    34    12    13 1   
    35    12    22 1   
    36    12    38 1   
    37    13    18 1   
    38    13    39 1   
    39    14    26 1   
    40    14    40 1   
    41    14    52 1   
    42    15    30 1   
    43    15    31 1   
    44    16    41 1   
    45    18    42 1   
    46    18    51 1   
    47    19    43 1   
    48    19    44 1   
    49    20    45 1   
    50    20    46 1   
    51    26    47 1   
    52    27    48 1   
    53    28    49 1   
    54    29    50 1   
    55    51    53 2   
    56    52    54 1   
    57    52    55 1   
    58    52    56 1   
@<TRIPOS>SUBSTRUCTURE
     1 BJ9         1 TEMP              0 ****  ****    0 ROOT
