@<TRIPOS>MOLECULE
BJB
   42    45     1     0     0
SMALL
abcg2


@<TRIPOS>ATOM
      1 C2           0.6310    -1.0660    -0.6770 cc         1 BJB      -0.005300
      2 C7           4.4040     1.5220    -0.4380 ca         1 BJB       0.106000
      3 C8           3.9690     1.6980     0.8760 ca         1 BJB      -0.109000
      4 C9           2.8110     1.0870     1.3240 ca         1 BJB      -0.099000
      5 C4           2.5350     0.1350    -0.8960 ca         1 BJB      -0.060800
      6 C31         -0.4800    -2.0280    -0.9290 c3         1 BJB      -0.039200
      7 C32         -0.2050    -3.4260    -0.3640 c3         1 BJB      -0.043400
      8 C25         -4.5880     3.4520    -1.2940 cc         1 BJB       0.386100
      9 C17         -3.1920     1.8340    -0.1720 ca         1 BJB      -0.217000
     10 C19         -1.4090     3.4290     0.2230 ca         1 BJB      -0.076000
     11 C18         -2.6710     3.1330    -0.2970 ca         1 BJB       0.131400
     12 C5           2.0910     0.3080     0.4240 ca         1 BJB      -0.043200
     13 C6           3.7090     0.7430    -1.3370 ca         1 BJB      -0.072000
     14 N1           0.9190    -0.4550     0.5660 na         1 BJB      -0.184900
     15 C3           1.6020    -0.7250    -1.5540 cd         1 BJB      -0.233200
     16 CL1          5.8700     2.3030    -0.9430 cl         1 BJB      -0.226000
     17 S14         -0.2670    -0.1140     1.7220 sy         1 BJB       1.172700
     18 C15         -1.2340     1.1450     0.9480 ca         1 BJB      -0.294500
     19 C16         -2.4830     0.8190     0.4540 ca         1 BJB       0.047000
     20 C20         -0.6940     2.4350     0.8500 ca         1 BJB      -0.023000
     21 S24         -4.7590     1.7750    -0.8930 ss         1 BJB       0.066800
     22 N26         -3.4920     4.0240    -0.9410 nd         1 BJB      -0.535100
     23 O29         -1.0710    -1.3030     1.8880 o          1 BJB      -0.509500
     24 O30          0.4230     0.4520     2.8600 o          1 BJB      -0.509500
     25 C35         -1.3740    -4.3630    -0.6100 c3         1 BJB      -0.206400
     26 C38         -1.1800    -5.8140    -0.1330 c          1 BJB       0.721000
     27 O41         -2.1630    -6.5700    -0.2790 o          1 BJB      -0.738500
     28 O42         -0.0740    -6.1250     0.3500 o          1 BJB      -0.738500
     29 H1           4.5420     2.3100     1.5580 ha         1 BJB       0.123000
     30 H2           2.5110     1.2260     2.3500 ha         1 BJB       0.152000
     31 H3          -1.4400    -1.6580    -0.5670 hc         1 BJB       0.046200
     32 H4          -0.5830    -2.0960    -2.0140 hc         1 BJB       0.046200
     33 H5           0.7000    -3.8200    -0.8320 hc         1 BJB       0.054200
     34 H6           0.0050    -3.3590     0.7040 hc         1 BJB       0.054200
     35 H9           4.0570     0.6040    -2.3520 ha         1 BJB       0.129000
     36 H10          1.6680    -1.0830    -2.5700 ha         1 BJB       0.209000
     37 H11         -2.8970    -0.1750     0.5550 ha         1 BJB       0.162000
     38 H12          0.2790     2.6630     1.2640 ha         1 BJB       0.136000
     39 H13         -2.2750    -3.9610    -0.1320 hc         1 BJB       0.015200
     40 H14         -1.6090    -4.3850    -1.6810 hc         1 BJB       0.015200
     41 H7          -5.3860     3.9600    -1.8190 h5         1 BJB       0.056800
     42 H8          -1.0090     4.4300     0.1390 ha         1 BJB       0.134000
@<TRIPOS>BOND
     1     1     6 1   
     2     1    14 1   
     3     1    15 2   
     4     2     3 ar  
     5     2    13 ar  
     6     2    16 1   
     7     3     4 ar  
     8     3    29 1   
     9     4    12 ar  
    10     4    30 1   
    11     5    12 ar  
    12     5    13 ar  
    13     5    15 1   
    14     6     7 1   
    15     6    31 1   
    16     6    32 1   
    17     7    25 1   
    18     7    33 1   
    19     7    34 1   
    20     8    21 1   
    21     8    22 2   
    22     8    41 1   
    23     9    11 ar  
    24     9    19 ar  
    25     9    21 1   
    26    10    11 ar  
    27    10    20 ar  
    28    10    42 1   
    29    11    22 1   
    30    12    14 1   
    31    13    35 1   
    32    14    17 1   
    33    15    36 1   
    34    17    18 1   
    35    17    23 2   
    36    17    24 2   
    37    18    19 ar  
    38    18    20 ar  
    39    19    37 1   
    40    20    38 1   
    41    25    26 1   
    42    25    39 1   
    43    25    40 1   
    44    26    27 1   
    45    26    28 1   
@<TRIPOS>SUBSTRUCTURE
     1 BJB         1 TEMP              0 ****  ****    0 ROOT
