@<TRIPOS>MOLECULE
BJB
   42    45     1     0     0
SMALL
No Charge or Current Charge


@<TRIPOS>ATOM
      1 C2           0.8600    -1.0780    -0.5910 cc         1 BJB      -0.005300
      2 C7           4.8880     1.2630    -0.2350 ca         1 BJB       0.106000
      3 C8           4.2430     1.7750     0.9120 ca         1 BJB      -0.109000
      4 C9           2.9430     1.3430     1.2600 ca         1 BJB      -0.099000
      5 C4           2.9530    -0.0860    -0.6740 ca         1 BJB      -0.060800
      6 C31         -0.3610    -1.8800    -0.9820 c3         1 BJB      -0.039200
      7 C32         -0.2920    -3.3510    -0.5120 c3         1 BJB      -0.043400
      8 C25         -5.1290     3.1490    -1.0680 cc         1 BJB       0.386100
      9 C17         -3.4990     1.7620     0.0200 ca         1 BJB      -0.217000
     10 C19         -1.7470     3.4150    -0.0330 ca         1 BJB      -0.076000
     11 C18         -3.0630     3.0250    -0.3240 ca         1 BJB       0.131400
     12 C5           2.3080     0.3860     0.4390 ca         1 BJB      -0.043200
     13 C6           4.2380     0.3180    -1.0500 ca         1 BJB      -0.072000
     14 N1           1.0360    -0.2160     0.5360 na         1 BJB      -0.184900
     15 C3           2.0430    -0.9910    -1.3000 cd         1 BJB      -0.233200
     16 Cl1          6.5050     1.8160    -0.6510 cl         1 BJB      -0.226000
     17 S14         -0.2110     0.0570     1.7650 sy         1 BJB       1.172700
     18 C15         -1.3380     1.2140     0.9580 ca         1 BJB      -0.294500
     19 C16         -2.6650     0.8330     0.6610 ca         1 BJB       0.047000
     20 C20         -0.8820     2.5080     0.6090 ca         1 BJB      -0.023000
     21 S24         -5.1720     1.4870    -0.4380 ss         1 BJB       0.066800
     22 N26         -3.9880     3.8480    -0.9560 nd         1 BJB      -0.535100
     23 O29         -0.9340    -1.2090     1.9500 o          1 BJB      -0.509500
     24 O30          0.4290     0.7590     2.8860 o          1 BJB      -0.509500
     25 C35         -1.5430    -4.1760    -0.9030 c3         1 BJB      -0.206400
     26 C38         -1.3840    -5.6320    -0.4310 c          1 BJB       0.721000
     27 O41         -1.7660    -5.9190     0.6940 o          1 BJB      -0.738500
     28 O42         -0.8390    -6.4250    -1.1830 o          1 BJB      -0.738500
     29 H1           4.7510     2.5090     1.5320 ha         1 BJB       0.123000
     30 H2           2.4710     1.7610     2.1430 ha         1 BJB       0.152000
     31 H3          -1.2790    -1.4120    -0.6130 hc         1 BJB       0.046200
     32 H4          -0.4510    -1.8700    -2.0750 hc         1 BJB       0.046200
     33 H5           0.6010    -3.8200    -0.9460 hc         1 BJB       0.054200
     34 H6          -0.1630    -3.3820     0.5760 hc         1 BJB       0.054200
     35 H9           4.7160    -0.0780    -1.9420 ha         1 BJB       0.129000
     36 H10          2.2370    -1.5220    -2.2290 ha         1 BJB       0.209000
     37 H11         -3.0460    -0.1560     0.9170 ha         1 BJB       0.162000
     38 H12          0.1410     2.8130     0.8300 ha         1 BJB       0.136000
     39 H13         -2.3890    -3.6960    -0.3960 hc         1 BJB       0.015200
     40 H14         -1.6020    -4.1320    -1.9980 hc         1 BJB       0.015200
     41 H7          -6.0290     3.5410    -1.5240 h5         1 BJB       0.056800
     42 H8          -1.3990     4.4080    -0.3030 ha         1 BJB       0.134000
@<TRIPOS>BOND
     1     1     6 1   
     2     1    14 1   
     3     1    15 2   
     4     2     3 ar  
     5     2    13 ar  
     6     2    16 1   
     7     3     4 ar  
     8     3    29 1   
     9     4    12 ar  
    10     4    30 1   
    11     5    12 ar  
    12     5    13 ar  
    13     5    15 1   
    14     6     7 1   
    15     6    31 1   
    16     6    32 1   
    17     7    25 1   
    18     7    33 1   
    19     7    34 1   
    20     8    21 1   
    21     8    22 2   
    22     8    41 1   
    23     9    11 ar  
    24     9    19 ar  
    25     9    21 1   
    26    10    11 ar  
    27    10    20 ar  
    28    10    42 1   
    29    11    22 1   
    30    12    14 1   
    31    13    35 1   
    32    14    17 1   
    33    15    36 1   
    34    17    18 1   
    35    17    23 2   
    36    17    24 2   
    37    18    19 ar  
    38    18    20 ar  
    39    19    37 1   
    40    20    38 1   
    41    25    26 1   
    42    25    39 1   
    43    25    40 1   
    44    26    27 1   
    45    26    28 1   
@<TRIPOS>SUBSTRUCTURE
     1 BJB         1 TEMP              0 ****  ****    0 ROOT
