@<TRIPOS>MOLECULE
BJC
   92    95     1     0     0
SMALL
No Charge or Current Charge


@<TRIPOS>ATOM
      1 N1          -7.0040    -0.8300     0.2440 n          1 BJC      -0.411800
      2 C2          -8.0850    -1.4110    -0.6220 c6         1 BJC       0.109000
      3 C5          -9.0510    -2.3890     0.0710 c6         1 BJC      -0.094400
      4 C8          -9.4700    -1.8490     1.4380 c6         1 BJC      -0.073400
      5 C11         -8.2140    -1.7480     2.3170 c6         1 BJC      -0.160400
      6 C14         -7.0300    -1.0120     1.6650 c          1 BJC       0.566000
      7 O15         -6.1600    -0.5780     2.4060 o          1 BJC      -0.587000
      8 C16         -5.8600    -0.0840    -0.4290 c3         1 BJC       0.152400
      9 C17         -4.5000    -0.8970    -0.2680 c6         1 BJC      -0.072700
     10 C19         -3.2510    -0.2120    -0.9110 c6         1 BJC      -0.064400
     11 C22         -1.9540    -1.0160    -0.6300 c6         1 BJC      -0.138700
     12 C24         -2.0480    -2.5060    -1.0460 c6         1 BJC      -0.066400
     13 C27         -3.2990    -3.1730    -0.4250 c6         1 BJC      -0.075400
     14 C30         -4.5910    -2.3820    -0.7530 c6         1 BJC      -0.068400
     15 C33         -0.6930    -0.3050    -1.1580 c          1 BJC       0.606100
     16 O34         -0.4920    -0.1470    -2.3550 o          1 BJC      -0.611100
     17 N35          0.1840     0.1450    -0.1960 ns         1 BJC      -0.492900
     18 C37          1.3430     1.0160    -0.4490 c3         1 BJC       0.082700
     19 C39          2.6510     0.3720     0.1060 c3         1 BJC       0.148300
     20 O41          2.5520     0.1580     1.5350 oh         1 BJC      -0.656000
     21 C43          3.9340     1.1870    -0.2320 c3         1 BJC       0.128800
     22 N46          5.1540     0.4630     0.1860 n7         1 BJC      -0.857400
     23 C48          6.4120     1.2160     0.0520 c3         1 BJC       0.206100
     24 C51          7.5850     0.3880     0.5600 ca         1 BJC      -0.091300
     25 C52          8.1870    -0.5740    -0.2760 ca         1 BJC      -0.082000
     26 C54          9.2770    -1.3450     0.1790 ca         1 BJC      -0.077300
     27 C55          9.7610    -1.1430     1.4880 ca         1 BJC      -0.102000
     28 C57          9.1630    -0.1870     2.3260 ca         1 BJC      -0.114000
     29 C59          8.0790     0.5770     1.8650 ca         1 BJC      -0.110000
     30 C61          9.9190    -2.3850    -0.7430 c3         1 BJC      -0.017400
     31 C63         11.3930    -2.0390    -1.0480 c3         1 BJC      -0.084100
     32 C67          9.7730    -3.8140    -0.1730 c3         1 BJC      -0.084100
     33 C71          1.0490     2.4540     0.0660 c3         1 BJC      -0.051100
     34 C74         -0.3200     2.9770    -0.3680 ca         1 BJC      -0.081300
     35 C75         -1.3500     3.1530     0.5790 ca         1 BJC      -0.102500
     36 C77         -2.6160     3.6120     0.1750 ca         1 BJC      -0.107500
     37 C79         -2.8620     3.8940    -1.1790 ca         1 BJC      -0.112000
     38 C81         -1.8410     3.7210    -2.1280 ca         1 BJC      -0.107500
     39 C83         -0.5740     3.2660    -1.7240 ca         1 BJC      -0.102500
     40 C85         -6.1490     0.1540    -1.9540 c3         1 BJC      -0.103600
     41 C89         -5.7660     1.3600     0.1590 c3         1 BJC      -0.103600
     42 H2          -8.6800    -0.5810    -1.0290 h1         1 BJC       0.041200
     43 H2A         -7.6380    -1.9480    -1.4700 h1         1 BJC       0.041200
     44 H5          -9.9340    -2.5500    -0.5640 hc         1 BJC       0.051200
     45 H5A         -8.5670    -3.3690     0.1870 hc         1 BJC       0.051200
     46 H8          -9.9350    -0.8600     1.3230 hc         1 BJC       0.049200
     47 H8A        -10.2130    -2.5100     1.9050 hc         1 BJC       0.049200
     48 H11         -8.4220    -1.3080     3.3010 hc         1 BJC       0.069700
     49 H11A        -7.8560    -2.7660     2.5190 hc         1 BJC       0.069700
     50 H17         -4.3000    -0.9310     0.8090 hc         1 BJC       0.074700
     51 H19         -3.3750    -0.1230    -1.9980 hc         1 BJC       0.054700
     52 H19A        -3.1280     0.8070    -0.5230 hc         1 BJC       0.054700
     53 H22         -1.8440    -1.0210     0.4640 hc         1 BJC       0.052700
     54 H24         -2.0950    -2.5830    -2.1410 hc         1 BJC       0.051700
     55 H24A        -1.1430    -3.0450    -0.7320 hc         1 BJC       0.051700
     56 H27         -3.3900    -4.2040    -0.7940 hc         1 BJC       0.040700
     57 H27A        -3.1770    -3.2440     0.6650 hc         1 BJC       0.040700
     58 H30         -5.4400    -2.8910    -0.2800 hc         1 BJC       0.038700
     59 H30A        -4.7690    -2.4230    -1.8360 hc         1 BJC       0.038700
     60 HN35        -0.0500    -0.0630     0.7660 hn         1 BJC       0.317500
     61 H37          1.4750     1.0930    -1.5370 h1         1 BJC       0.091700
     62 H39          2.7550    -0.6000    -0.3980 h1         1 BJC       0.102700
     63 HO41         2.5560     1.0410     1.9610 ho         1 BJC       0.433000
     64 H43          3.9620     1.3790    -1.3130 h1         1 BJC       0.033700
     65 H43A         3.8820     2.1610     0.2740 h1         1 BJC       0.033700
     66 HN46         5.0430     0.2080     1.1750 hn         1 BJC       0.421000
     67 H48          6.5890     1.4830    -0.9990 h1         1 BJC       0.035200
     68 H48A         6.3610     2.1530     0.6240 h1         1 BJC       0.035200
     69 H52          7.8010    -0.7200    -1.2820 ha         1 BJC       0.125000
     70 H55         10.6000    -1.7260     1.8600 ha         1 BJC       0.111000
     71 H57          9.5420    -0.0370     3.3350 ha         1 BJC       0.111000
     72 H59          7.6220     1.3150     2.5210 ha         1 BJC       0.107000
     73 H61          9.3910    -2.3780    -1.7060 hc         1 BJC       0.051700
     74 H63         11.8140    -2.7460    -1.7730 hc         1 BJC       0.034533
     75 H63A        11.4710    -1.0310    -1.4730 hc         1 BJC       0.034533
     76 H63B        12.0060    -2.0770    -0.1390 hc         1 BJC       0.034533
     77 H67          8.7180    -4.0460     0.0130 hc         1 BJC       0.034533
     78 H67A        10.1640    -4.5540    -0.8820 hc         1 BJC       0.034533
     79 H67B        10.3210    -3.9220     0.7700 hc         1 BJC       0.034533
     80 H71          1.1180     2.4700     1.1600 hc         1 BJC       0.048700
     81 H71A         1.8270     3.1350    -0.2980 hc         1 BJC       0.048700
     82 H75         -1.1730     2.9300     1.6280 ha         1 BJC       0.110500
     83 H77         -3.4060     3.7440     0.9100 ha         1 BJC       0.115000
     84 H79         -3.8430     4.2460    -1.4920 ha         1 BJC       0.112000
     85 H81         -2.0310     3.9370    -3.1770 ha         1 BJC       0.115000
     86 H83          0.2090     3.1300    -2.4660 ha         1 BJC       0.110500
     87 H85         -7.1040     0.6720    -2.1000 hc         1 BJC       0.044367
     88 H85A        -5.3860     0.7910    -2.4160 hc         1 BJC       0.044367
     89 H85B        -6.1720    -0.7760    -2.5300 hc         1 BJC       0.044367
     90 H89         -5.3110     1.3740     1.1550 hc         1 BJC       0.044367
     91 H89A        -5.1510     2.0140    -0.4700 hc         1 BJC       0.044367
     92 H89B        -6.7610     1.8140     0.2300 hc         1 BJC       0.044367
@<TRIPOS>BOND
     1     1     2 1   
     2     1     6 1   
     3     1     8 1   
     4     2     3 1   
     5     2    42 1   
     6     2    43 1   
     7     3     4 1   
     8     3    44 1   
     9     3    45 1   
    10     4     5 1   
    11     4    46 1   
    12     4    47 1   
    13     5     6 1   
    14     5    48 1   
    15     5    49 1   
    16     6     7 2   
    17     8     9 1   
    18     8    40 1   
    19     8    41 1   
    20     9    10 1   
    21     9    14 1   
    22     9    50 1   
    23    10    11 1   
    24    10    51 1   
    25    10    52 1   
    26    11    12 1   
    27    11    15 1   
    28    11    53 1   
    29    12    13 1   
    30    12    54 1   
    31    12    55 1   
    32    13    14 1   
    33    13    56 1   
    34    13    57 1   
    35    14    58 1   
    36    14    59 1   
    37    15    16 2   
    38    15    17 1   
    39    17    18 1   
    40    17    60 1   
    41    18    19 1   
    42    18    33 1   
    43    18    61 1   
    44    19    20 1   
    45    19    21 1   
    46    19    62 1   
    47    20    63 1   
    48    21    22 1   
    49    21    64 1   
    50    21    65 1   
    51    22    23 1   
    52    22    66 1   
    53    23    24 1   
    54    23    67 1   
    55    23    68 1   
    56    24    25 ar  
    57    24    29 ar  
    58    25    26 ar  
    59    25    69 1   
    60    26    27 ar  
    61    26    30 1   
    62    27    28 ar  
    63    27    70 1   
    64    28    29 ar  
    65    28    71 1   
    66    29    72 1   
    67    30    31 1   
    68    30    32 1   
    69    30    73 1   
    70    31    74 1   
    71    31    75 1   
    72    31    76 1   
    73    32    77 1   
    74    32    78 1   
    75    32    79 1   
    76    33    34 1   
    77    33    80 1   
    78    33    81 1   
    79    34    35 ar  
    80    34    39 ar  
    81    35    36 ar  
    82    35    82 1   
    83    36    37 ar  
    84    36    83 1   
    85    37    38 ar  
    86    37    84 1   
    87    38    39 ar  
    88    38    85 1   
    89    39    86 1   
    90    40    87 1   
    91    40    88 1   
    92    40    89 1   
    93    41    90 1   
    94    41    91 1   
    95    41    92 1   
@<TRIPOS>SUBSTRUCTURE
     1 BJC         1 TEMP              0 ****  ****    0 ROOT
