@<TRIPOS>MOLECULE
BJC
   92    95     1     0     0
SMALL
abcg2


@<TRIPOS>ATOM
      1 N1          -6.8050    -0.9480    -0.1170 n          1 BJC      -0.411800
      2 C2          -7.6300    -1.7020    -1.0670 c6         1 BJC       0.109000
      3 C5          -8.5970    -2.6730    -0.4230 c6         1 BJC      -0.094400
      4 C8          -9.3640    -1.9740     0.6770 c6         1 BJC      -0.073400
      5 C11         -8.3530    -1.5580     1.7260 c6         1 BJC      -0.160400
      6 C14         -7.0770    -0.9170     1.2070 c          1 BJC       0.566000
      7 O15         -6.3370    -0.3950     2.0370 o          1 BJC      -0.587000
      8 C16         -5.6060    -0.2270    -0.6560 c3         1 BJC       0.152400
      9 C17         -4.3150    -0.9500    -0.1820 c6         1 BJC      -0.072700
     10 C19         -3.0360    -0.3020    -0.7180 c6         1 BJC      -0.064400
     11 C22         -1.7940    -0.9640    -0.1110 c6         1 BJC      -0.138700
     12 C24         -1.7760    -2.4600    -0.4290 c6         1 BJC      -0.066400
     13 C27         -3.0560    -3.1220     0.0660 c6         1 BJC      -0.075400
     14 C30         -4.3000    -2.4470    -0.5030 c6         1 BJC      -0.068400
     15 C33         -0.5510    -0.2760    -0.6350 c          1 BJC       0.606100
     16 O34         -0.2940    -0.2390    -1.8320 o          1 BJC      -0.611100
     17 N35          0.2330     0.2850     0.3040 ns         1 BJC      -0.492900
     18 C37          1.3460     1.1590     0.0190 c3         1 BJC       0.082700
     19 C39          2.6480     0.5600     0.5650 c3         1 BJC       0.148300
     20 O41          2.5640     0.2710     1.9460 oh         1 BJC      -0.656000
     21 C43          3.8640     1.4150     0.2370 c3         1 BJC       0.128800
     22 N46          5.0890     0.6690     0.4390 n7         1 BJC      -0.857400
     23 C48          6.2760     1.4660     0.1920 c3         1 BJC       0.206100
     24 C51          7.5320     0.6520     0.3570 ca         1 BJC      -0.091300
     25 C52          7.6630    -0.5820    -0.2800 ca         1 BJC      -0.082000
     26 C54          8.8170    -1.3460    -0.1640 ca         1 BJC      -0.077300
     27 C55          9.8640    -0.8540     0.6190 ca         1 BJC      -0.102000
     28 C57          9.7480     0.3670     1.2620 ca         1 BJC      -0.114000
     29 C59          8.5840     1.1180     1.1350 ca         1 BJC      -0.110000
     30 C61          8.9200    -2.6910    -0.8470 c3         1 BJC      -0.017400
     31 C63         10.1590    -2.7940    -1.7360 c3         1 BJC      -0.084100
     32 C67          8.8860    -3.8250     0.1790 c3         1 BJC      -0.084100
     33 C71          1.0470     2.5760     0.5380 c3         1 BJC      -0.051100
     34 C74         -0.2830     3.0780     0.0510 ca         1 BJC      -0.081300
     35 C75         -1.4010     3.0520     0.8800 ca         1 BJC      -0.102500
     36 C77         -2.6410     3.4740     0.4210 ca         1 BJC      -0.107500
     37 C79         -2.7810     3.9300    -0.8830 ca         1 BJC      -0.112000
     38 C81         -1.6730     3.9610    -1.7200 ca         1 BJC      -0.107500
     39 C83         -0.4350     3.5390    -1.2550 ca         1 BJC      -0.102500
     40 C85         -5.6650    -0.1690    -2.1900 c3         1 BJC      -0.103600
     41 C89         -5.6300     1.2400    -0.1960 c3         1 BJC      -0.103600
     42 H2          -8.1940    -1.0070    -1.6950 h1         1 BJC       0.041200
     43 H2A         -6.9730    -2.2650    -1.7280 h1         1 BJC       0.041200
     44 H5          -9.2530    -3.0580    -1.2060 hc         1 BJC       0.051200
     45 H5A         -8.0560    -3.5300    -0.0100 hc         1 BJC       0.051200
     46 H8          -9.8840    -1.1010     0.2730 hc         1 BJC       0.049200
     47 H8A        -10.1220    -2.6210     1.1200 hc         1 BJC       0.049200
     48 H11         -8.7800    -0.8610     2.4490 hc         1 BJC       0.069700
     49 H11A        -8.0410    -2.4360     2.3010 hc         1 BJC       0.069700
     50 H17         -4.2910    -0.8510     0.9070 hc         1 BJC       0.074700
     51 H19         -2.9790    -0.4040    -1.8050 hc         1 BJC       0.054700
     52 H19A        -3.0170     0.7690    -0.4970 hc         1 BJC       0.054700
     53 H22         -1.8410    -0.8460     0.9780 hc         1 BJC       0.052700
     54 H24         -1.6810    -2.5960    -1.5100 hc         1 BJC       0.051700
     55 H24A        -0.9040    -2.9340     0.0290 hc         1 BJC       0.051700
     56 H27         -3.0530    -4.1830    -0.1940 hc         1 BJC       0.040700
     57 H27A        -3.0870    -3.0710     1.1600 hc         1 BJC       0.040700
     58 H30         -5.1900    -2.9350    -0.0960 hc         1 BJC       0.038700
     59 H30A        -4.3240    -2.6000    -1.5870 hc         1 BJC       0.038700
     60 HN35        -0.0560     0.2060     1.2670 hn         1 BJC       0.317500
     61 H37          1.4440     1.2030    -1.0670 h1         1 BJC       0.091700
     62 H39          2.7800    -0.4090     0.0740 h1         1 BJC       0.102700
     63 HO41         2.6400     1.0920     2.4450 ho         1 BJC       0.433000
     64 H43          3.8120     1.7210    -0.8130 h1         1 BJC       0.033700
     65 H43A         3.8340     2.3460     0.8300 h1         1 BJC       0.033700
     66 HN46         5.1180     0.3310     1.3940 hn         1 BJC       0.421000
     67 H48          6.2200     1.8390    -0.8360 h1         1 BJC       0.035200
     68 H48A         6.3330     2.3580     0.8340 h1         1 BJC       0.035200
     69 H52          6.8390    -0.9540    -0.8800 ha         1 BJC       0.125000
     70 H55         10.7760    -1.4290     0.7280 ha         1 BJC       0.111000
     71 H57         10.5640     0.7370     1.8700 ha         1 BJC       0.111000
     72 H59          8.4960     2.0700     1.6470 ha         1 BJC       0.107000
     73 H61          8.0410    -2.7970    -1.4920 hc         1 BJC       0.051700
     74 H63         10.1640    -3.7450    -2.2720 hc         1 BJC       0.034533
     75 H63A        10.1890    -1.9920    -2.4740 hc         1 BJC       0.034533
     76 H63B        11.0790    -2.7470    -1.1510 hc         1 BJC       0.034533
     77 H67          7.9810    -3.7820     0.7860 hc         1 BJC       0.034533
     78 H67A         8.9120    -4.7960    -0.3170 hc         1 BJC       0.034533
     79 H67B         9.7430    -3.7710     0.8520 hc         1 BJC       0.034533
     80 H71          1.0590     2.5890     1.6320 hc         1 BJC       0.048700
     81 H71A         1.8430     3.2470     0.2060 hc         1 BJC       0.048700
     82 H75         -1.3000     2.6980     1.9000 ha         1 BJC       0.110500
     83 H77         -3.4980     3.4420     1.0810 ha         1 BJC       0.115000
     84 H79         -3.7460     4.2600    -1.2440 ha         1 BJC       0.112000
     85 H81         -1.7710     4.3190    -2.7370 ha         1 BJC       0.115000
     86 H83          0.4240     3.5680    -1.9150 ha         1 BJC       0.110500
     87 H85         -6.5840     0.3040    -2.5350 hc         1 BJC       0.044367
     88 H85A        -4.8430     0.4470    -2.5480 hc         1 BJC       0.044367
     89 H85B        -5.5730    -1.1340    -2.6850 hc         1 BJC       0.044367
     90 H89         -5.3710     1.3680     0.8510 hc         1 BJC       0.044367
     91 H89A        -4.9260     1.8290    -0.7830 hc         1 BJC       0.044367
     92 H89B        -6.6210     1.6650    -0.3640 hc         1 BJC       0.044367
@<TRIPOS>BOND
     1     1     2 1   
     2     1     6 1   
     3     1     8 1   
     4     2     3 1   
     5     2    42 1   
     6     2    43 1   
     7     3     4 1   
     8     3    44 1   
     9     3    45 1   
    10     4     5 1   
    11     4    46 1   
    12     4    47 1   
    13     5     6 1   
    14     5    48 1   
    15     5    49 1   
    16     6     7 2   
    17     8     9 1   
    18     8    40 1   
    19     8    41 1   
    20     9    10 1   
    21     9    14 1   
    22     9    50 1   
    23    10    11 1   
    24    10    51 1   
    25    10    52 1   
    26    11    12 1   
    27    11    15 1   
    28    11    53 1   
    29    12    13 1   
    30    12    54 1   
    31    12    55 1   
    32    13    14 1   
    33    13    56 1   
    34    13    57 1   
    35    14    58 1   
    36    14    59 1   
    37    15    16 2   
    38    15    17 1   
    39    17    18 1   
    40    17    60 1   
    41    18    19 1   
    42    18    33 1   
    43    18    61 1   
    44    19    20 1   
    45    19    21 1   
    46    19    62 1   
    47    20    63 1   
    48    21    22 1   
    49    21    64 1   
    50    21    65 1   
    51    22    23 1   
    52    22    66 1   
    53    23    24 1   
    54    23    67 1   
    55    23    68 1   
    56    24    25 ar  
    57    24    29 ar  
    58    25    26 ar  
    59    25    69 1   
    60    26    27 ar  
    61    26    30 1   
    62    27    28 ar  
    63    27    70 1   
    64    28    29 ar  
    65    28    71 1   
    66    29    72 1   
    67    30    31 1   
    68    30    32 1   
    69    30    73 1   
    70    31    74 1   
    71    31    75 1   
    72    31    76 1   
    73    32    77 1   
    74    32    78 1   
    75    32    79 1   
    76    33    34 1   
    77    33    80 1   
    78    33    81 1   
    79    34    35 ar  
    80    34    39 ar  
    81    35    36 ar  
    82    35    82 1   
    83    36    37 ar  
    84    36    83 1   
    85    37    38 ar  
    86    37    84 1   
    87    38    39 ar  
    88    38    85 1   
    89    39    86 1   
    90    40    87 1   
    91    40    88 1   
    92    40    89 1   
    93    41    90 1   
    94    41    91 1   
    95    41    92 1   
@<TRIPOS>SUBSTRUCTURE
     1 BJC         1 TEMP              0 ****  ****    0 ROOT
