@<TRIPOS>MOLECULE
BJD
   86    91     1     0     0
SMALL
No Charge or Current Charge


@<TRIPOS>ATOM
      1 Cl9         -8.4920    -3.0820     0.3080 cl         1 BJD      -0.188000
      2 C70         -6.7350    -3.0410     0.4720 ca         1 BJD       0.151000
      3 C69         -6.0540    -1.8650     0.8640 ca         1 BJD      -0.080300
      4 C81         -6.8000    -0.5710     1.1680 c3         1 BJD       0.211100
      5 N83         -6.9830     0.2240    -0.0600 n7         1 BJD      -0.862400
      6 C85         -7.6810     1.5070     0.1220 c3         1 BJD       0.210100
      7 C87         -7.7850     2.2490    -1.2030 ca         1 BJD      -0.092300
      8 C93         -8.8040     1.9240    -2.1200 ca         1 BJD      -0.095500
      9 C92         -8.9050     2.6110    -3.3430 ca         1 BJD      -0.115500
     10 C91         -7.9870     3.6280    -3.6570 ca         1 BJD      -0.107000
     11 C90         -6.9670     3.9550    -2.7470 ca         1 BJD      -0.115500
     12 C89         -6.8660     3.2680    -1.5240 ca         1 BJD      -0.095500
     13 C68         -4.6480    -1.8910     0.9780 ca         1 BJD      -0.079000
     14 C71         -6.0140    -4.2170     0.2020 ca         1 BJD      -0.112000
     15 C72         -4.6140    -4.2340     0.3190 ca         1 BJD      -0.073000
     16 C66         -3.9290    -3.0700     0.7070 ca         1 BJD       0.026000
     17 C64         -2.5000    -3.0840     0.8300 cg         1 BJD      -0.087000
     18 C62         -1.2860    -3.1070     0.9460 ch         1 BJD      -0.101000
     19 C50          0.1330    -3.1370     1.1000 ca         1 BJD       0.035000
     20 C49          0.9020    -2.0710     0.5950 ca         1 BJD      -0.057000
     21 C51          0.7760    -4.2110     1.7480 ca         1 BJD       0.140000
     22 Cl6         -0.1330    -5.5760     2.4070 cl         1 BJD      -0.182000
     23 C52          2.1700    -4.1970     1.8950 ca         1 BJD      -0.108000
     24 C53          2.9320    -3.1310     1.3880 ca         1 BJD      -0.082000
     25 C47          2.3160    -2.0570     0.7020 ca         1 BJD      -0.118500
     26 C22          3.0710    -0.8950     0.1720 cc         1 BJD       0.327500
     27 N21          2.4460     0.2450    -0.0880 nd         1 BJD      -0.508800
     28 C23          4.4670    -0.7830    -0.0630 cc         1 BJD      -0.230300
     29 C33          5.5390    -1.8470     0.0260 c6         1 BJD       0.283100
     30 N32          6.7130    -1.4530    -0.7980 n3         1 BJD      -0.730500
     31 S39          6.7250    -1.9960    -2.4360 s6         1 BJD       1.201100
     32 O43          7.6240    -1.1000    -3.1710 o          1 BJD      -0.533000
     33 O45          7.0220    -3.4310    -2.3950 o          1 BJD      -0.533000
     34 C41          5.0720    -1.7370    -3.0680 c3         1 BJD      -0.376100
     35 C31          7.1510    -0.0500    -0.5290 c6         1 BJD       0.204800
     36 C30          6.0620     0.9930    -0.9060 c6         1 BJD      -0.047100
     37 C24          4.7040     0.4850    -0.4810 cd         1 BJD      -0.149300
     38 N19          3.4570     1.1010    -0.4980 na         1 BJD       0.152800
     39 C17          3.1660     2.4880    -0.8930 c3         1 BJD       0.082600
     40 C15          3.3760     3.4980     0.2540 c3         1 BJD      -0.099400
     41 C13          3.0870     4.9510    -0.1770 c3         1 BJD       0.171800
     42 N2           3.1340     5.9410     0.9260 n3         1 BJD      -0.712600
     43 C3           2.6280     7.2840     0.5000 c6         1 BJD       0.124300
     44 C4           2.6550     8.3140     1.6680 c6         1 BJD       0.153100
     45 O5           3.9880     8.4050     2.2250 os         1 BJD      -0.447000
     46 C6           4.4720     7.1340     2.7180 c6         1 BJD       0.153100
     47 C1           4.4800     6.0740     1.5760 c6         1 BJD       0.124300
     48 H1          -7.7700    -0.7990     1.6300 h1         1 BJD       0.041200
     49 H2          -6.2260     0.0030     1.9090 h1         1 BJD       0.041200
     50 H3          -6.0550     0.4250    -0.4500 hn         1 BJD       0.417000
     51 H5          -8.6920     1.3390     0.5190 h1         1 BJD       0.035700
     52 H6          -7.1460     2.1360     0.8480 h1         1 BJD       0.035700
     53 H7          -9.5170     1.1360    -1.8840 ha         1 BJD       0.118000
     54 H8          -9.6950     2.3550    -4.0460 ha         1 BJD       0.111000
     55 H9          -8.0650     4.1590    -4.6030 ha         1 BJD       0.111000
     56 H10         -6.2560     4.7420    -2.9890 ha         1 BJD       0.111000
     57 H11         -6.0730     3.5290    -0.8260 ha         1 BJD       0.118000
     58 H12         -4.1140    -0.9920     1.2780 ha         1 BJD       0.120000
     59 H13         -6.5430    -5.1180    -0.0980 ha         1 BJD       0.132000
     60 H14         -4.0640    -5.1490     0.1090 ha         1 BJD       0.128000
     61 H15          0.3850    -1.2540     0.0960 ha         1 BJD       0.137000
     62 H16          2.6630    -5.0130     2.4170 ha         1 BJD       0.135000
     63 H17          3.9980    -3.1490     1.5780 ha         1 BJD       0.121000
     64 H18          5.8550    -1.9480     1.0750 h1         1 BJD       0.078200
     65 H19          5.1580    -2.8310    -0.2860 h1         1 BJD       0.078200
     66 H20          4.8400    -0.6720    -2.9810 h1         1 BJD       0.101033
     67 H21          5.0750    -2.0500    -4.1170 h1         1 BJD       0.101033
     68 H22          4.3800    -2.3470    -2.4810 h1         1 BJD       0.101033
     69 H23          7.3580     0.0590     0.5460 h1         1 BJD       0.081200
     70 H24          8.0930     0.1910    -1.0420 h1         1 BJD       0.081200
     71 H25          6.2920     1.9560    -0.4300 hc         1 BJD       0.064200
     72 H26          6.0780     1.1710    -1.9890 hc         1 BJD       0.064200
     73 H27          3.8180     2.7500    -1.7360 h1         1 BJD       0.066200
     74 H28          2.1280     2.5420    -1.2440 h1         1 BJD       0.066200
     75 H29          2.7190     3.2320     1.0910 hc         1 BJD       0.064700
     76 H30          4.4090     3.4130     0.6110 hc         1 BJD       0.064700
     77 H31          3.7990     5.2330    -0.9650 h1         1 BJD       0.031700
     78 H32          2.0860     4.9680    -0.6290 h1         1 BJD       0.031700
     79 H34          3.2370     7.6770    -0.3280 h1         1 BJD       0.041200
     80 H35          1.5960     7.2020     0.1290 h1         1 BJD       0.041200
     81 H36          2.3490     9.3040     1.3010 h1         1 BJD       0.052950
     82 H37          1.9510     8.0080     2.4560 h1         1 BJD       0.052950
     83 H38          5.4880     7.2650     3.1150 h1         1 BJD       0.052950
     84 H39          3.8250     6.7940     3.5400 h1         1 BJD       0.052950
     85 H40          4.8030     5.1160     2.0070 h1         1 BJD       0.041200
     86 H41          5.2360     6.3650     0.8310 h1         1 BJD       0.041200
@<TRIPOS>BOND
     1     1     2 1   
     2     2     3 ar  
     3     2    14 ar  
     4     3     4 1   
     5     3    13 ar  
     6     4     5 1   
     7     4    48 1   
     8     4    49 1   
     9     5     6 1   
    10     5    50 1   
    11     6     7 1   
    12     6    51 1   
    13     6    52 1   
    14     7     8 ar  
    15     7    12 ar  
    16     8     9 ar  
    17     8    53 1   
    18     9    10 ar  
    19     9    54 1   
    20    10    11 ar  
    21    10    55 1   
    22    11    12 ar  
    23    11    56 1   
    24    12    57 1   
    25    13    16 ar  
    26    13    58 1   
    27    14    15 ar  
    28    14    59 1   
    29    15    16 ar  
    30    15    60 1   
    31    16    17 1   
    32    17    18 3   
    33    18    19 1   
    34    19    20 ar  
    35    19    21 ar  
    36    20    25 ar  
    37    20    61 1   
    38    21    22 1   
    39    21    23 ar  
    40    23    24 ar  
    41    23    62 1   
    42    24    25 ar  
    43    24    63 1   
    44    25    26 1   
    45    26    27 2   
    46    26    28 1   
    47    27    38 1   
    48    28    29 1   
    49    28    37 2   
    50    29    30 1   
    51    29    64 1   
    52    29    65 1   
    53    30    31 1   
    54    30    35 1   
    55    31    32 2   
    56    31    33 2   
    57    31    34 1   
    58    34    66 1   
    59    34    67 1   
    60    34    68 1   
    61    35    36 1   
    62    35    69 1   
    63    35    70 1   
    64    36    37 1   
    65    36    71 1   
    66    36    72 1   
    67    37    38 1   
    68    38    39 1   
    69    39    40 1   
    70    39    73 1   
    71    39    74 1   
    72    40    41 1   
    73    40    75 1   
    74    40    76 1   
    75    41    42 1   
    76    41    77 1   
    77    41    78 1   
    78    42    43 1   
    79    42    47 1   
    80    43    44 1   
    81    43    79 1   
    82    43    80 1   
    83    44    45 1   
    84    44    81 1   
    85    44    82 1   
    86    45    46 1   
    87    46    47 1   
    88    46    83 1   
    89    46    84 1   
    90    47    85 1   
    91    47    86 1   
@<TRIPOS>SUBSTRUCTURE
     1 BJD         1 TEMP              0 ****  ****    0 ROOT
