@<TRIPOS>MOLECULE
BJD
   86    91     1     0     0
SMALL
abcg2


@<TRIPOS>ATOM
      1 CL9         -8.0140    -1.4770     1.2030 cl         1 BJD      -0.188000
      2 C70         -6.3310    -1.8170     0.9920 ca         1 BJD       0.151000
      3 C69         -5.3850    -0.8110     1.1920 ca         1 BJD      -0.080300
      4 C81         -5.7760     0.5940     1.5490 c3         1 BJD       0.211100
      5 N83         -6.4000     1.2380     0.4130 n7         1 BJD      -0.862400
      6 C85         -6.9920     2.5210     0.7330 c3         1 BJD       0.210100
      7 C87         -7.7400     3.0790    -0.4470 ca         1 BJD      -0.092300
      8 C93         -8.6460     2.2780    -1.1440 ca         1 BJD      -0.095500
      9 C92         -9.3570     2.7880    -2.2200 ca         1 BJD      -0.115500
     10 C91         -9.1710     4.1070    -2.6200 ca         1 BJD      -0.107000
     11 C90         -8.2690     4.9090    -1.9360 ca         1 BJD      -0.115500
     12 C89         -7.5580     4.3940    -0.8580 ca         1 BJD      -0.095500
     13 C68         -4.0490    -1.1410     1.0150 ca         1 BJD      -0.079000
     14 C71         -5.9600    -3.1080     0.6460 ca         1 BJD      -0.112000
     15 C72         -4.6220    -3.4170     0.4780 ca         1 BJD      -0.073000
     16 C66         -3.6500    -2.4320     0.6580 ca         1 BJD       0.026000
     17 C64         -2.2730    -2.7330     0.4770 cg         1 BJD      -0.087000
     18 C62         -1.1050    -2.9920     0.3210 ch         1 BJD      -0.101000
     19 C50          0.2730    -3.2710     0.1290 ca         1 BJD       0.035000
     20 C49          1.1810    -2.2220    -0.0250 ca         1 BJD      -0.057000
     21 C51          0.7570    -4.5830     0.0910 ca         1 BJD       0.140000
     22 CL6         -0.3350    -5.9030     0.2830 cl         1 BJD      -0.182000
     23 C52          2.1040    -4.8320    -0.0980 ca         1 BJD      -0.108000
     24 C53          2.9870    -3.7750    -0.2530 ca         1 BJD      -0.082000
     25 C47          2.5390    -2.4540    -0.2160 ca         1 BJD      -0.118500
     26 C22          3.4470    -1.3170    -0.3910 cc         1 BJD       0.327500
     27 N21          2.9820    -0.1870    -0.9050 nd         1 BJD      -0.508800
     28 C23          4.8130    -1.1770    -0.0610 cc         1 BJD      -0.230300
     29 C33          5.8230    -2.0780     0.5800 c6         1 BJD       0.283100
     30 N32          7.1660    -1.5180     0.4230 n3         1 BJD      -0.730500
     31 S39          8.1390    -2.1720    -0.7410 s6         1 BJD       1.201100
     32 O43          9.4240    -1.4950    -0.6440 o          1 BJD      -0.533000
     33 O45          8.0850    -3.6170    -0.5760 o          1 BJD      -0.533000
     34 C41          7.4320    -1.7930    -2.3300 c3         1 BJD      -0.376100
     35 C31          7.2680    -0.0920     0.7300 c6         1 BJD       0.204800
     36 C30          6.4300     0.7910    -0.1970 c6         1 BJD      -0.047100
     37 C24          5.1170     0.1230    -0.3970 cd         1 BJD      -0.149300
     38 N19          3.9980     0.6640    -0.9120 na         1 BJD       0.152800
     39 C17          3.8020     2.0190    -1.3780 c3         1 BJD       0.082600
     40 C15          3.1200     2.8940    -0.3350 c3         1 BJD      -0.099400
     41 C13          2.9210     4.3060    -0.8670 c3         1 BJD       0.171800
     42 N2           2.1360     5.1460     0.0160 n3         1 BJD      -0.712600
     43 C3           1.7830     6.3960    -0.6340 c6         1 BJD       0.124300
     44 C4           0.9230     7.2420     0.2840 c6         1 BJD       0.153100
     45 O5           1.5750     7.5030     1.5070 os         1 BJD      -0.447000
     46 C6           1.9240     6.2980     2.1510 c6         1 BJD       0.153100
     47 C1           2.8020     5.4230     1.2760 c6         1 BJD       0.124300
     48 H1          -6.4980     0.5750     2.3710 h1         1 BJD       0.041200
     49 H2          -4.8930     1.1280     1.9260 h1         1 BJD       0.041200
     50 H3          -5.7150     1.3560    -0.3240 hn         1 BJD       0.417000
     51 H5          -7.6940     2.3630     1.5590 h1         1 BJD       0.035700
     52 H6          -6.2620     3.2620     1.0930 h1         1 BJD       0.035700
     53 H7          -8.7850     1.2480    -0.8380 ha         1 BJD       0.118000
     54 H8         -10.0590     2.1560    -2.7480 ha         1 BJD       0.111000
     55 H9          -9.7240     4.5040    -3.4620 ha         1 BJD       0.111000
     56 H10         -8.1130     5.9360    -2.2430 ha         1 BJD       0.111000
     57 H11         -6.8490     5.0250    -0.3340 ha         1 BJD       0.118000
     58 H12         -3.2980    -0.3740     1.1560 ha         1 BJD       0.120000
     59 H13         -6.7130    -3.8720     0.5070 ha         1 BJD       0.132000
     60 H14         -4.3320    -4.4230     0.2060 ha         1 BJD       0.128000
     61 H15          0.8090    -1.2070     0.0150 ha         1 BJD       0.137000
     62 H16          2.4680    -5.8500    -0.1360 ha         1 BJD       0.135000
     63 H17          4.0290    -4.0020    -0.4280 ha         1 BJD       0.121000
     64 H18          5.6280    -2.1870     1.6510 h1         1 BJD       0.078200
     65 H19          5.8080    -3.0870     0.1730 h1         1 BJD       0.078200
     66 H20          7.4280    -0.7180    -2.4830 h1         1 BJD       0.101033
     67 H21          8.0510    -2.2700    -3.0880 h1         1 BJD       0.101033
     68 H22          6.4180    -2.1830    -2.3880 h1         1 BJD       0.101033
     69 H23          6.9120     0.0210     1.7560 h1         1 BJD       0.081200
     70 H24          8.3110     0.2130     0.7230 h1         1 BJD       0.081200
     71 H25          6.3140     1.7750     0.2640 hc         1 BJD       0.064200
     72 H26          6.9360     0.9600    -1.1520 hc         1 BJD       0.064200
     73 H27          4.7790     2.4250    -1.6430 h1         1 BJD       0.066200
     74 H28          3.2130     1.9740    -2.2950 h1         1 BJD       0.066200
     75 H29          2.1510     2.4620    -0.0720 hc         1 BJD       0.064700
     76 H30          3.7310     2.8980     0.5710 hc         1 BJD       0.064700
     77 H31          3.9040     4.7580    -1.0870 h1         1 BJD       0.031700
     78 H32          2.3900     4.2470    -1.8220 h1         1 BJD       0.031700
     79 H34          2.6790     6.9690    -0.9320 h1         1 BJD       0.041200
     80 H35          1.2220     6.1820    -1.5480 h1         1 BJD       0.041200
     81 H36          0.7060     8.2030    -0.1840 h1         1 BJD       0.052950
     82 H37         -0.0330     6.7280     0.4620 h1         1 BJD       0.052950
     83 H38          2.4540     6.5580     3.0690 h1         1 BJD       0.052950
     84 H39          1.0200     5.7370     2.4300 h1         1 BJD       0.052950
     85 H40          2.9950     4.4920     1.8130 h1         1 BJD       0.041200
     86 H41          3.7790     5.9140     1.1190 h1         1 BJD       0.041200
@<TRIPOS>BOND
     1     1     2 1   
     2     2     3 ar  
     3     2    14 ar  
     4     3     4 1   
     5     3    13 ar  
     6     4     5 1   
     7     4    48 1   
     8     4    49 1   
     9     5     6 1   
    10     5    50 1   
    11     6     7 1   
    12     6    51 1   
    13     6    52 1   
    14     7     8 ar  
    15     7    12 ar  
    16     8     9 ar  
    17     8    53 1   
    18     9    10 ar  
    19     9    54 1   
    20    10    11 ar  
    21    10    55 1   
    22    11    12 ar  
    23    11    56 1   
    24    12    57 1   
    25    13    16 ar  
    26    13    58 1   
    27    14    15 ar  
    28    14    59 1   
    29    15    16 ar  
    30    15    60 1   
    31    16    17 1   
    32    17    18 3   
    33    18    19 1   
    34    19    20 ar  
    35    19    21 ar  
    36    20    25 ar  
    37    20    61 1   
    38    21    22 1   
    39    21    23 ar  
    40    23    24 ar  
    41    23    62 1   
    42    24    25 ar  
    43    24    63 1   
    44    25    26 1   
    45    26    27 2   
    46    26    28 1   
    47    27    38 1   
    48    28    29 1   
    49    28    37 2   
    50    29    30 1   
    51    29    64 1   
    52    29    65 1   
    53    30    31 1   
    54    30    35 1   
    55    31    32 2   
    56    31    33 2   
    57    31    34 1   
    58    34    66 1   
    59    34    67 1   
    60    34    68 1   
    61    35    36 1   
    62    35    69 1   
    63    35    70 1   
    64    36    37 1   
    65    36    71 1   
    66    36    72 1   
    67    37    38 1   
    68    38    39 1   
    69    39    40 1   
    70    39    73 1   
    71    39    74 1   
    72    40    41 1   
    73    40    75 1   
    74    40    76 1   
    75    41    42 1   
    76    41    77 1   
    77    41    78 1   
    78    42    43 1   
    79    42    47 1   
    80    43    44 1   
    81    43    79 1   
    82    43    80 1   
    83    44    45 1   
    84    44    81 1   
    85    44    82 1   
    86    45    46 1   
    87    46    47 1   
    88    46    83 1   
    89    46    84 1   
    90    47    85 1   
    91    47    86 1   
@<TRIPOS>SUBSTRUCTURE
     1 BJD         1 TEMP              0 ****  ****    0 ROOT
