@<TRIPOS>MOLECULE
BJF
   44    44     1     0     0
SMALL
bcc


@<TRIPOS>ATOM
      1 O2           2.0550     2.0330     0.7790 oh         1 BJF      -0.568100
      2 C1          -0.2640    -0.1600    -0.5830 cc         1 BJF       0.376800
      3 C2           1.4230     1.0410     0.1540 cc         1 BJF       0.080500
      4 N           -1.7050    -1.3410    -2.0940 n8         1 BJF      -0.867800
      5 C           -0.7640     3.3360     0.4180 c          1 BJF       0.930600
      6 O            0.3810     3.7770     0.1190 o          1 BJF      -0.798300
      7 CB1         -2.0660    -1.5540     0.3940 c3         1 BJF      -0.117400
      8 CB2          3.2940    -0.4380    -0.8200 c3         1 BJF      -0.058700
      9 CG1         -3.4860    -2.1210     0.3380 c3         1 BJF      -0.060700
     10 CG2          3.7540    -1.6570    -0.0070 c3         1 BJF      -0.063700
     11 CD1          5.1210    -2.1330    -0.4850 c3         1 BJF      -0.081600
     12 CD2          3.7780    -1.3550     1.4860 c3         1 BJF      -0.081600
     13 CA1         -1.6560    -0.6740    -0.8010 c3         1 BJF       0.151200
     14 CA2          1.8870    -0.0300    -0.5530 cd         1 BJF       0.211600
     15 CA3         -0.8600     1.8520     0.8270 c3         1 BJF      -0.110700
     16 CC1         -3.7280    -3.0300     1.5400 c3         1 BJF      -0.088100
     17 CC2         -4.5430    -1.0220     0.2830 c3         1 BJF      -0.088100
     18 N2           0.8130    -0.7680    -0.9940 nd         1 BJF      -0.687000
     19 N3           0.0470     0.9580     0.1350 na         1 BJF      -0.209900
     20 O1          -1.8050     3.9920     0.4660 o          1 BJF      -0.798300
     21 H2          -1.0230    -2.0900    -2.1050 hn         1 BJF       0.335800
     22 H3          -2.6090    -1.7810    -2.2090 hn         1 BJF       0.335800
     23 H5          -1.9620    -0.9750     1.3200 hc         1 BJF       0.049700
     24 H6          -1.3480    -2.3770     0.4640 hc         1 BJF       0.049700
     25 H7           3.9680     0.4000    -0.6160 hc         1 BJF       0.037200
     26 H8           3.4090    -0.6680    -1.8850 hc         1 BJF       0.037200
     27 H9          -3.5810    -2.7380    -0.5630 hc         1 BJF       0.032700
     28 H10          3.0290    -2.4620    -0.1820 hc         1 BJF       0.050700
     29 H11          5.8730    -1.3510    -0.3510 hc         1 BJF       0.023867
     30 H12          5.4550    -3.0090     0.0730 hc         1 BJF       0.023867
     31 H13          5.1050    -2.3990    -1.5430 hc         1 BJF       0.023867
     32 H14          2.8030    -1.0260     1.8480 hc         1 BJF       0.023867
     33 H15          4.0680    -2.2360     2.0620 hc         1 BJF       0.023867
     34 H16          4.4980    -0.5640     1.7090 hc         1 BJF       0.023867
     35 H17         -2.3430     0.1770    -0.8570 h1         1 BJF       0.071700
     36 H18         -0.6770     1.7850     1.9050 h1         1 BJF       0.046200
     37 H19         -1.8780     1.5060     0.6670 h1         1 BJF       0.046200
     38 H20         -3.6780    -2.4640     2.4730 hc         1 BJF       0.030533
     39 H21         -4.7130    -3.4960     1.4920 hc         1 BJF       0.030533
     40 H22         -2.9850    -3.8280     1.5960 hc         1 BJF       0.030533
     41 H23         -4.4740    -0.4180    -0.6230 hc         1 BJF       0.030533
     42 H24         -5.5490    -1.4460     0.3100 hc         1 BJF       0.030533
     43 H25         -4.4440    -0.3480     1.1370 hc         1 BJF       0.030533
     44 H27          1.5020     2.8630     0.5730 ho         1 BJF       0.510000
@<TRIPOS>BOND
     1     1     3 1   
     2     1    44 1   
     3     2    13 1   
     4     2    18 2   
     5     2    19 1   
     6     3    14 2   
     7     3    19 1   
     8     4    13 1   
     9     4    21 1   
    10     4    22 1   
    11     5     6 1   
    12     5    15 1   
    13     5    20 1   
    14     7     9 1   
    15     7    13 1   
    16     7    23 1   
    17     7    24 1   
    18     8    10 1   
    19     8    14 1   
    20     8    25 1   
    21     8    26 1   
    22     9    16 1   
    23     9    17 1   
    24     9    27 1   
    25    10    11 1   
    26    10    12 1   
    27    10    28 1   
    28    11    29 1   
    29    11    30 1   
    30    11    31 1   
    31    12    32 1   
    32    12    33 1   
    33    12    34 1   
    34    13    35 1   
    35    14    18 1   
    36    15    19 1   
    37    15    36 1   
    38    15    37 1   
    39    16    38 1   
    40    16    39 1   
    41    16    40 1   
    42    17    41 1   
    43    17    42 1   
    44    17    43 1   
@<TRIPOS>SUBSTRUCTURE
     1 BJF         1 TEMP              0 ****  ****    0 ROOT
