@<TRIPOS>MOLECULE
BJF
   44    44     1     0     0
SMALL
No Charge or Current Charge


@<TRIPOS>ATOM
      1 O2           2.1170     2.0320     0.6650 oh         1 BJF      -0.607100
      2 C1          -0.2330    -0.2410    -0.6170 cc         1 BJF       0.376800
      3 C2           1.4490     1.0120     0.0820 cc         1 BJF       0.095100
      4 N           -1.8270    -1.5200    -2.1260 n8         1 BJF      -0.978200
      5 C           -0.7750     3.2670     0.4900 c          1 BJF       0.720000
      6 O            0.2500     3.8540     0.8120 o          1 BJF      -0.693000
      7 CB1         -2.1390    -1.6380     0.3480 c3         1 BJF      -0.117400
      8 CB2          3.3660    -0.4390    -0.8990 c3         1 BJF      -0.058700
      9 CG1         -3.6420    -2.0450     0.3520 c3         1 BJF      -0.060700
     10 CG2          3.9110    -1.6030    -0.0290 c3         1 BJF      -0.063700
     11 CD1          5.3290    -2.0220    -0.4760 c3         1 BJF      -0.081600
     12 CD2          3.8790    -1.2700     1.4820 c3         1 BJF      -0.081600
     13 CA1         -1.6600    -0.7680    -0.8470 c3         1 BJF       0.151200
     14 CA2          1.9280    -0.0790    -0.6030 cd         1 BJF       0.146300
     15 CA3         -0.8680     1.7780     0.8590 c3         1 BJF      -0.081400
     16 CC1         -3.9420    -3.0130     1.5190 c3         1 BJF      -0.088100
     17 CC2         -4.5930    -0.8250     0.3990 c3         1 BJF      -0.088100
     18 N2           0.8740    -0.8530    -1.0440 nd         1 BJF      -0.687000
     19 N3           0.0770     0.9030     0.1140 na         1 BJF      -0.188500
     20 O1          -1.6880     3.7730    -0.1440 o          1 BJF      -0.693000
     21 H2          -1.0870    -2.2310    -2.1700 hn         1 BJF       0.391000
     22 H3          -2.6950    -2.0630    -2.0770 hn         1 BJF       0.391000
     23 H5          -1.9290    -1.0940     1.2770 hc         1 BJF       0.049700
     24 H6          -1.5200    -2.5440     0.3860 hc         1 BJF       0.049700
     25 H7           4.0060     0.4420    -0.7600 hc         1 BJF       0.037200
     26 H8           3.4570    -0.7120    -1.9570 hc         1 BJF       0.037200
     27 H9          -3.8550    -2.5940    -0.5730 hc         1 BJF       0.032700
     28 H10          3.2550    -2.4680    -0.1870 hc         1 BJF       0.050700
     29 H11          6.0410    -1.1970    -0.3430 hc         1 BJF       0.023867
     30 H12          5.6840    -2.8780     0.1100 hc         1 BJF       0.023867
     31 H13          5.3340    -2.3120    -1.5330 hc         1 BJF       0.023867
     32 H14          2.8560    -1.0690     1.8200 hc         1 BJF       0.023867
     33 H15          4.2650    -2.1110     2.0710 hc         1 BJF       0.023867
     34 H16          4.4940    -0.3890     1.7010 hc         1 BJF       0.023867
     35 H17         -2.3170     0.1090    -0.9120 h1         1 BJF       0.071700
     36 H18         -0.6570     1.6850     1.9320 h1         1 BJF       0.046200
     37 H19         -1.9000     1.4490     0.6980 h1         1 BJF       0.046200
     38 H20         -3.7590    -2.5280     2.4860 hc         1 BJF       0.030533
     39 H21         -4.9880    -3.3410     1.4920 hc         1 BJF       0.030533
     40 H22         -3.3080    -3.9060     1.4570 hc         1 BJF       0.030533
     41 H23         -4.4930    -0.2070    -0.5010 hc         1 BJF       0.030533
     42 H24         -5.6380    -1.1520     0.4580 hc         1 BJF       0.030533
     43 H25         -4.3820    -0.1980     1.2740 hc         1 BJF       0.030533
     44 H27          1.4480     2.7650     0.8080 ho         1 BJF       0.549000
@<TRIPOS>BOND
     1     1     3 1   
     2     1    44 1   
     3     2    13 1   
     4     2    18 2   
     5     2    19 1   
     6     3    14 2   
     7     3    19 1   
     8     4    13 1   
     9     4    21 1   
    10     4    22 1   
    11     5     6 1   
    12     5    15 1   
    13     5    20 1   
    14     7     9 1   
    15     7    13 1   
    16     7    23 1   
    17     7    24 1   
    18     8    10 1   
    19     8    14 1   
    20     8    25 1   
    21     8    26 1   
    22     9    16 1   
    23     9    17 1   
    24     9    27 1   
    25    10    11 1   
    26    10    12 1   
    27    10    28 1   
    28    11    29 1   
    29    11    30 1   
    30    11    31 1   
    31    12    32 1   
    32    12    33 1   
    33    12    34 1   
    34    13    35 1   
    35    14    18 1   
    36    15    19 1   
    37    15    36 1   
    38    15    37 1   
    39    16    38 1   
    40    16    39 1   
    41    16    40 1   
    42    17    41 1   
    43    17    42 1   
    44    17    43 1   
@<TRIPOS>SUBSTRUCTURE
     1 BJF         1 TEMP              0 ****  ****    0 ROOT
