@<TRIPOS>MOLECULE
BJG
   67    71     1     0     0
SMALL
abcg2


@<TRIPOS>ATOM
      1 C8          -8.3720    -0.3940     0.8870 c6         1 BJG       0.194800
      2 C9          -9.7460     0.1630     1.2080 c6         1 BJG       0.158300
      3 N10        -10.3890     0.6810     0.0190 n3         1 BJG      -0.715600
      4 C35        -11.7290     1.1450     0.2930 c3         1 BJG       0.152100
      5 C11         -9.5700     1.7200    -0.5680 c6         1 BJG       0.158300
      6 C12         -8.1940     1.1870    -0.9150 c6         1 BJG       0.194800
      7 N7          -7.5500     0.6220     0.2630 nh         1 BJG      -0.782400
      8 C16         -6.1760     0.3720     0.1690 ca         1 BJG       0.265000
      9 C17         -5.3030     1.3810    -0.2620 ca         1 BJG      -0.131000
     10 C18         -3.9420     1.1720    -0.3320 ca         1 BJG      -0.119500
     11 C15         -5.5980    -0.8460     0.5270 ca         1 BJG      -0.131000
     12 C14         -4.2240    -1.0560     0.4770 ca         1 BJG      -0.119500
     13 C13         -3.3690    -0.0500     0.0390 ca         1 BJG       0.281000
     14 N34         -1.9780    -0.1420    -0.0230 nu         1 BJG      -0.925900
     15 C23         -1.1520    -1.2190     0.0180 ca         1 BJG       0.395900
     16 N24          0.1490    -0.9100    -0.0390 nb         1 BJG      -0.274000
     17 N22         -1.6560    -2.4440     0.1100 nb         1 BJG      -0.233000
     18 C21         -0.7690    -3.4350     0.1190 ca         1 BJG       0.149900
     19 C20          0.5900    -3.2390     0.0430 ca         1 BJG      -0.270000
     20 C19          1.0200    -1.9060    -0.0260 ca         1 BJG       0.259500
     21 C29          2.4430    -1.6010    -0.0390 cc         1 BJG      -0.256500
     22 N25          3.0050    -0.4070    -0.4320 na         1 BJG       0.072000
     23 C33          2.3160     0.7210    -1.0370 c3         1 BJG       0.057900
     24 C28          3.4600    -2.4190     0.3950 cd         1 BJG      -0.117000
     25 C27          4.6690    -1.7070     0.2720 cd         1 BJG      -0.226600
     26 C30          6.0310    -2.1430     0.6240 c          1 BJG       0.647700
     27 O31          7.0160    -1.4580     0.3730 o          1 BJG      -0.612100
     28 N32          6.1250    -3.3400     1.2320 nt         1 BJG      -0.610000
     29 C26          4.3470    -0.4620    -0.2490 cc         1 BJG      -0.038000
     30 C1           5.2150     0.6920    -0.5480 ca         1 BJG      -0.023000
     31 C2           5.2610     1.7340     0.3710 ca         1 BJG      -0.077000
     32 C3           6.0550     2.8410     0.1160 ca         1 BJG       0.109000
     33 CL1          6.1120     4.1320     1.2720 cl         1 BJG      -0.204000
     34 C4           6.7980     2.9260    -1.0480 ca         1 BJG      -0.087000
     35 C5           6.7340     1.8830    -1.9610 ca         1 BJG      -0.109000
     36 C6           5.9520     0.7550    -1.7350 ca         1 BJG      -0.025300
     37 C36          5.9130    -0.3600    -2.7350 c3         1 BJG      -0.051800
     38 H81C        -7.9080    -0.7120     1.8220 h1         1 BJG       0.043700
     39 H82C        -8.4770    -1.2860     0.2510 h1         1 BJG       0.043700
     40 H91C       -10.3580    -0.6380     1.6290 h1         1 BJG       0.039200
     41 H92C        -9.6460     0.9400     1.9870 h1         1 BJG       0.039200
     42 H351       -11.7620     1.9770     1.0130 h1         1 BJG       0.031367
     43 H352       -12.2030     1.4840    -0.6290 h1         1 BJG       0.031367
     44 H353       -12.3320     0.3300     0.6980 h1         1 BJG       0.031367
     45 H111       -10.0480     2.0800    -1.4830 h1         1 BJG       0.039200
     46 H112        -9.4660     2.5870     0.1080 h1         1 BJG       0.039200
     47 H121        -8.2870     0.4300    -1.7090 h1         1 BJG       0.043700
     48 H122        -7.5980     2.0050    -1.3140 h1         1 BJG       0.043700
     49 H17         -5.6860     2.3560    -0.5350 ha         1 BJG       0.115000
     50 H15         -6.2110    -1.6730     0.8580 ha         1 BJG       0.115000
     51 H18         -3.3050     1.9830    -0.6690 ha         1 BJG       0.126000
     52 H14         -3.8340    -2.0170     0.7720 ha         1 BJG       0.126000
     53 H34         -1.4900     0.7300    -0.1630 hn         1 BJG       0.506000
     54 H21         -1.1740    -4.4390     0.1840 h4         1 BJG       0.023100
     55 H20          1.2760    -4.0720     0.0300 ha         1 BJG       0.137000
     56 H28          3.3220    -3.4170     0.7820 ha         1 BJG       0.130000
     57 H331         1.7920     1.3110    -0.2900 h1         1 BJG       0.062033
     58 H332         3.0460     1.3480    -1.5380 h1         1 BJG       0.062033
     59 H333         1.5990     0.3710    -1.7720 h1         1 BJG       0.062033
     60 H321         5.3250    -3.8960     1.4760 hn         1 BJG       0.311500
     61 H322         7.0290    -3.7040     1.4810 hn         1 BJG       0.311500
     62 H2           4.6820     1.6790     1.2840 ha         1 BJG       0.133000
     63 H4           7.4150     3.7920    -1.2490 ha         1 BJG       0.129000
     64 H5           7.3120     1.9540    -2.8740 ha         1 BJG       0.118000
     65 H361         4.8930    -0.6590    -2.9760 hc         1 BJG       0.049700
     66 H362         6.4040    -0.0700    -3.6630 hc         1 BJG       0.049700
     67 H363         6.4240    -1.2430    -2.3480 hc         1 BJG       0.049700
@<TRIPOS>BOND
     1     1     2 1   
     2     1     7 1   
     3     1    38 1   
     4     1    39 1   
     5     2     3 1   
     6     2    40 1   
     7     2    41 1   
     8     3     4 1   
     9     3     5 1   
    10     4    42 1   
    11     4    43 1   
    12     4    44 1   
    13     5     6 1   
    14     5    45 1   
    15     5    46 1   
    16     6     7 1   
    17     6    47 1   
    18     6    48 1   
    19     7     8 1   
    20     8     9 ar  
    21     8    11 ar  
    22     9    10 ar  
    23     9    49 1   
    24    10    13 ar  
    25    10    51 1   
    26    11    12 ar  
    27    11    50 1   
    28    12    13 ar  
    29    12    52 1   
    30    13    14 1   
    31    14    15 1   
    32    14    53 1   
    33    15    16 ar  
    34    15    17 ar  
    35    16    20 ar  
    36    17    18 ar  
    37    18    19 ar  
    38    18    54 1   
    39    19    20 ar  
    40    19    55 1   
    41    20    21 1   
    42    21    22 1   
    43    21    24 2   
    44    22    23 1   
    45    22    29 1   
    46    23    57 1   
    47    23    58 1   
    48    23    59 1   
    49    24    25 1   
    50    24    56 1   
    51    25    26 1   
    52    25    29 2   
    53    26    27 2   
    54    26    28 1   
    55    28    60 1   
    56    28    61 1   
    57    29    30 1   
    58    30    31 ar  
    59    30    36 ar  
    60    31    32 ar  
    61    31    62 1   
    62    32    33 1   
    63    32    34 ar  
    64    34    35 ar  
    65    34    63 1   
    66    35    36 ar  
    67    35    64 1   
    68    36    37 1   
    69    37    65 1   
    70    37    66 1   
    71    37    67 1   
@<TRIPOS>SUBSTRUCTURE
     1 BJG         1 TEMP              0 ****  ****    0 ROOT
