@<TRIPOS>MOLECULE
BJG
   67    71     1     0     0
SMALL
No Charge or Current Charge


@<TRIPOS>ATOM
      1 C8          -8.4710    -0.1810     1.2850 c6         1 BJG       0.194800
      2 C9          -9.8420     0.5410     1.5040 c6         1 BJG       0.158300
      3 N10        -10.6550     0.6360     0.2540 n3         1 BJG      -0.715600
      4 C35        -11.9670     1.2810     0.4740 c3         1 BJG       0.152100
      5 C11         -9.8560     1.3050    -0.8180 c6         1 BJG       0.158300
      6 C12         -8.4860     0.5990    -1.0860 c6         1 BJG       0.194800
      7 N7          -7.6760     0.4150     0.1630 nh         1 BJG      -0.782400
      8 C16         -6.2740     0.2380     0.0770 ca         1 BJG       0.265000
      9 C17         -5.4870     1.1840    -0.6060 ca         1 BJG      -0.131000
     10 C18         -4.0910     1.0270    -0.7000 ca         1 BJG      -0.119500
     11 C15         -5.6320    -0.8660     0.6750 ca         1 BJG      -0.131000
     12 C14         -4.2360    -1.0240     0.5790 ca         1 BJG      -0.119500
     13 C13         -3.4540    -0.0840    -0.1210 ca         1 BJG       0.281000
     14 N34         -2.0620    -0.1920    -0.2300 nu         1 BJG      -0.925900
     15 C23         -1.1580    -1.2480    -0.2040 ca         1 BJG       0.395900
     16 N24          0.1310    -0.8750    -0.2070 nb         1 BJG      -0.274000
     17 N22         -1.6300    -2.5070    -0.2010 nb         1 BJG      -0.233000
     18 C21         -0.7110    -3.4890    -0.1920 ca         1 BJG       0.149900
     19 C20          0.6630    -3.2050    -0.1870 ca         1 BJG      -0.270000
     20 C19          1.0610    -1.8530    -0.1920 ca         1 BJG       0.259500
     21 C29          2.4830    -1.4770    -0.1900 cc         1 BJG      -0.256500
     22 N25          3.0850    -0.2530    -0.5070 na         1 BJG       0.072000
     23 C33          2.4220     0.9300    -1.0830 c3         1 BJG       0.057900
     24 C28          3.4600    -2.2780     0.3490 cd         1 BJG      -0.117000
     25 C27          4.7010    -1.5880     0.3180 cd         1 BJG      -0.226600
     26 C30          6.0310    -2.0860     0.7780 c          1 BJG       0.647700
     27 O31          7.0780    -1.4630     0.7360 o          1 BJG      -0.612100
     28 N32          6.0230    -3.3400     1.2720 nt         1 BJG      -0.610000
     29 C26          4.4470    -0.3430    -0.2180 cc         1 BJG      -0.038000
     30 C1           5.4590     0.6910    -0.4210 ca         1 BJG      -0.023000
     31 C2           5.8100     1.5270     0.6540 ca         1 BJG      -0.077000
     32 C3           6.7660     2.5390     0.4820 ca         1 BJG       0.109000
     33 Cl1          7.1990     3.5780     1.8340 cl         1 BJG      -0.204000
     34 C4           7.3750     2.7250    -0.7680 ca         1 BJG      -0.087000
     35 C5           7.0270     1.8960    -1.8480 ca         1 BJG      -0.109000
     36 C6           6.0690     0.8750    -1.6840 ca         1 BJG      -0.025300
     37 C36          5.7050    -0.0190    -2.8650 c3         1 BJG      -0.051800
     38 H81C        -7.9020    -0.1270     2.2250 h1         1 BJG       0.043700
     39 H82C        -8.6640    -1.2440     1.0790 h1         1 BJG       0.043700
     40 H91C       -10.4000    -0.0000     2.2810 h1         1 BJG       0.039200
     41 H92C        -9.6420     1.5490     1.8990 h1         1 BJG       0.039200
     42 H351       -11.8430     2.3180     0.8140 h1         1 BJG       0.031367
     43 H352       -12.5540     1.2910    -0.4540 h1         1 BJG       0.031367
     44 H353       -12.5440     0.7360     1.2330 h1         1 BJG       0.031367
     45 H111       -10.4250     1.3280    -1.7590 h1         1 BJG       0.039200
     46 H112        -9.6570     2.3510    -0.5400 h1         1 BJG       0.039200
     47 H121        -8.6820    -0.3830    -1.5420 h1         1 BJG       0.043700
     48 H122        -7.9330     1.1930    -1.8280 h1         1 BJG       0.043700
     49 H17         -5.9550     2.0540    -1.0570 ha         1 BJG       0.115000
     50 H15         -6.2080    -1.6130     1.2130 ha         1 BJG       0.115000
     51 H18         -3.5060     1.7720    -1.2320 ha         1 BJG       0.126000
     52 H14         -3.7710    -1.8730     1.0700 ha         1 BJG       0.126000
     53 H34         -1.6010     0.6910    -0.4470 hn         1 BJG       0.506000
     54 H21         -1.0810    -4.5130    -0.1930 h4         1 BJG       0.023100
     55 H20          1.3850    -4.0140    -0.1950 ha         1 BJG       0.137000
     56 H28          3.3070    -3.2760     0.7480 ha         1 BJG       0.130000
     57 H331         1.8130     1.4180    -0.3120 h1         1 BJG       0.062033
     58 H332         3.1700     1.6400    -1.4530 h1         1 BJG       0.062033
     59 H333         1.7810     0.6210    -1.9170 h1         1 BJG       0.062033
     60 H321         5.1610    -3.8590     1.3080 hn         1 BJG       0.311500
     61 H322         6.8860    -3.7440     1.6010 hn         1 BJG       0.311500
     62 H2           5.3400     1.3900     1.6240 ha         1 BJG       0.133000
     63 H4           8.1150     3.5110    -0.9000 ha         1 BJG       0.129000
     64 H5           7.5040     2.0480    -2.8140 ha         1 BJG       0.118000
     65 H361         4.6630     0.1330    -3.1670 hc         1 BJG       0.049700
     66 H362         6.3350     0.1840    -3.7390 hc         1 BJG       0.049700
     67 H363         5.8300    -1.0780    -2.6100 hc         1 BJG       0.049700
@<TRIPOS>BOND
     1     1     2 1   
     2     1     7 1   
     3     1    38 1   
     4     1    39 1   
     5     2     3 1   
     6     2    40 1   
     7     2    41 1   
     8     3     4 1   
     9     3     5 1   
    10     4    42 1   
    11     4    43 1   
    12     4    44 1   
    13     5     6 1   
    14     5    45 1   
    15     5    46 1   
    16     6     7 1   
    17     6    47 1   
    18     6    48 1   
    19     7     8 1   
    20     8     9 ar  
    21     8    11 ar  
    22     9    10 ar  
    23     9    49 1   
    24    10    13 ar  
    25    10    51 1   
    26    11    12 ar  
    27    11    50 1   
    28    12    13 ar  
    29    12    52 1   
    30    13    14 1   
    31    14    15 1   
    32    14    53 1   
    33    15    16 ar  
    34    15    17 ar  
    35    16    20 ar  
    36    17    18 ar  
    37    18    19 ar  
    38    18    54 1   
    39    19    20 ar  
    40    19    55 1   
    41    20    21 1   
    42    21    22 1   
    43    21    24 2   
    44    22    23 1   
    45    22    29 1   
    46    23    57 1   
    47    23    58 1   
    48    23    59 1   
    49    24    25 1   
    50    24    56 1   
    51    25    26 1   
    52    25    29 2   
    53    26    27 2   
    54    26    28 1   
    55    28    60 1   
    56    28    61 1   
    57    29    30 1   
    58    30    31 ar  
    59    30    36 ar  
    60    31    32 ar  
    61    31    62 1   
    62    32    33 1   
    63    32    34 ar  
    64    34    35 ar  
    65    34    63 1   
    66    35    36 ar  
    67    35    64 1   
    68    36    37 1   
    69    37    65 1   
    70    37    66 1   
    71    37    67 1   
@<TRIPOS>SUBSTRUCTURE
     1 BJG         1 TEMP              0 ****  ****    0 ROOT
