@<TRIPOS>MOLECULE
BJJ
   90    95     1     0     0
SMALL
No Charge or Current Charge


@<TRIPOS>ATOM
      1 C1           4.1600    -1.4590    -0.2400 cc         1 BJJ      -0.197300
      2 C2           5.0370    -0.4590    -0.4930 cd         1 BJJ      -0.131300
      3 C3           6.5290    -0.6520    -0.5770 c6         1 BJJ      -0.007100
      4 C4           6.9080    -2.0410     0.0010 c6         1 BJJ       0.203800
      5 C6           4.5770    -2.8940    -0.0170 c6         1 BJJ       0.287100
      6 N13          4.2530     0.6710    -0.6980 na         1 BJJ       0.151800
      7 C15          2.8550    -0.9010    -0.2960 cc         1 BJJ       0.324500
      8 C20          1.5490    -1.5630    -0.0370 ca         1 BJJ      -0.109500
      9 C22          4.7270     2.0280    -1.0140 c3         1 BJJ       0.082600
     10 C28          6.9130    -4.8710     1.4680 c3         1 BJJ      -0.383100
     11 C32          5.1030     2.8430     0.2410 c3         1 BJJ      -0.099400
     12 C34          5.6160     4.2570    -0.1040 c3         1 BJJ       0.170800
     13 C38          6.9150     4.6350     2.0040 c6         1 BJJ       0.125300
     14 C39          7.1220     5.5970     3.2120 c6         1 BJJ       0.153600
     15 C41          6.3430     7.4680     1.9120 c6         1 BJJ       0.153600
     16 C42          6.1240     6.5480     0.6740 c6         1 BJJ       0.125300
     17 C49          1.4280    -2.8190     0.6040 ca         1 BJJ      -0.094000
     18 C50          0.1670    -3.3910     0.8430 ca         1 BJJ      -0.106000
     19 C51         -1.0040    -2.7220     0.4650 ca         1 BJJ       0.127000
     20 C52         -0.9190    -1.4540    -0.1470 ca         1 BJJ      -0.073300
     21 C53          0.3500    -0.8890    -0.3830 ca         1 BJJ      -0.078000
     22 C62         -2.1680    -0.6810    -0.5680 c3         1 BJJ      -0.029100
     23 C64         -2.6820    -1.1120    -1.9570 c3         1 BJJ      -0.028100
     24 C66         -3.9460    -0.3630    -2.3570 ca         1 BJJ      -0.079300
     25 C68         -5.2040    -0.8190    -1.9220 ca         1 BJJ      -0.097000
     26 C69         -6.3850    -0.1330    -2.2760 ca         1 BJJ      -0.076300
     27 C70         -6.2910     1.0270    -3.0790 ca         1 BJJ       0.145000
     28 C71         -5.0350     1.4840    -3.5130 ca         1 BJJ      -0.109000
     29 C72         -3.8650     0.7930    -3.1540 ca         1 BJJ      -0.096000
     30 C81         -7.7270    -0.6620    -1.7840 c3         1 BJJ       0.213100
     31 C85         -9.3420    -0.5320     0.1030 c3         1 BJJ       0.212100
     32 C87         -9.5710     0.1170     1.4620 ca         1 BJJ      -0.091300
     33 C89        -10.1410     1.4030     1.5470 ca         1 BJJ      -0.095000
     34 C90        -10.3570     2.0030     2.8000 ca         1 BJJ      -0.116000
     35 C91        -10.0040     1.3200     3.9770 ca         1 BJJ      -0.108000
     36 C92         -9.4340     0.0380     3.8990 ca         1 BJJ      -0.116000
     37 C93         -9.2180    -0.5620     2.6460 ca         1 BJJ      -0.095000
     38 N14          2.9000     0.3970    -0.5710 nd         1 BJJ      -0.515800
     39 N36          5.8500     5.1310     1.0710 n3         1 BJJ      -0.712600
     40 N5           5.9810    -3.1090    -0.4730 n3         1 BJJ      -0.733500
     41 N83         -8.0760    -0.0640    -0.4830 n7         1 BJJ      -0.865400
     42 O26          7.7990    -4.8160    -1.0470 o          1 BJJ      -0.529000
     43 O30          5.4370    -5.6070    -0.6040 o          1 BJJ      -0.529000
     44 O40          7.4000     6.9400     2.7480 os         1 BJJ      -0.448000
     45 S24          6.5550    -4.7170    -0.2760 s6         1 BJJ       1.203100
     46 Cl6         -2.5570    -3.4960     0.7860 cl         1 BJJ      -0.209000
     47 Cl9         -7.7240     1.9390    -3.5600 cl         1 BJJ      -0.199000
     48 H1           6.8520    -0.5970    -1.6250 hc         1 BJJ       0.067200
     49 H2           7.0680     0.1370    -0.0360 hc         1 BJJ       0.067200
     50 H3           7.9460    -2.2580    -0.2910 h1         1 BJJ       0.058200
     51 H4           6.8900    -1.9840     1.1000 h1         1 BJJ       0.058200
     52 H5           4.4890    -3.1370     1.0520 h1         1 BJJ       0.061700
     53 H6           3.9000    -3.5610    -0.5700 h1         1 BJJ       0.061700
     54 H7           5.6010     1.9440    -1.6720 h1         1 BJJ       0.067200
     55 H8           3.9410     2.5530    -1.5710 h1         1 BJJ       0.067200
     56 H9           5.9940    -4.6580     2.0210 h1         1 BJJ       0.101033
     57 H10          7.2460    -5.8990     1.6400 h1         1 BJJ       0.101033
     58 H11          7.7060    -4.1580     1.7150 h1         1 BJJ       0.101033
     59 H12          4.2230     2.9280     0.8900 hc         1 BJJ       0.062700
     60 H13          5.8690     2.2940     0.8000 hc         1 BJJ       0.062700
     61 H14          6.5400     4.1630    -0.6910 h1         1 BJJ       0.032200
     62 H15          4.8690     4.7290    -0.7570 h1         1 BJJ       0.032200
     63 H16          7.8710     4.5300     1.4700 h1         1 BJJ       0.040700
     64 H17          6.6560     3.6450     2.4020 h1         1 BJJ       0.040700
     65 H18          6.2200     5.6100     3.8400 h1         1 BJJ       0.052700
     66 H19          7.9630     5.2490     3.8280 h1         1 BJJ       0.052700
     67 H20          6.6150     8.4810     1.5820 h1         1 BJJ       0.052700
     68 H21          5.4150     7.5360     2.4980 h1         1 BJJ       0.052700
     69 H22          5.2860     6.9480     0.0830 h1         1 BJJ       0.040700
     70 H23          7.0190     6.5990     0.0370 h1         1 BJJ       0.040700
     71 H24          2.2910    -3.3650     0.9600 ha         1 BJJ       0.118000
     72 H25          0.0980    -4.3590     1.3330 ha         1 BJJ       0.131000
     73 H26          0.3960     0.0860    -0.8640 ha         1 BJJ       0.132000
     74 H27         -2.9690    -0.8040     0.1710 hc         1 BJJ       0.057700
     75 H28         -1.9570     0.3950    -0.5910 hc         1 BJJ       0.057700
     76 H29         -1.8900    -0.9470    -2.6980 hc         1 BJJ       0.055700
     77 H30         -2.8740    -2.1920    -1.9540 hc         1 BJJ       0.055700
     78 H31         -5.2660    -1.7110    -1.3010 ha         1 BJJ       0.115000
     79 H32         -4.9690     2.3770    -4.1290 ha         1 BJJ       0.128000
     80 H33         -2.8990     1.1590    -3.4940 ha         1 BJJ       0.116000
     81 H34         -8.5080    -0.4560    -2.5280 h1         1 BJJ       0.040700
     82 H35         -7.6620    -1.7560    -1.6920 h1         1 BJJ       0.040700
     83 H36         -9.3280    -1.6240     0.2240 h1         1 BJJ       0.035200
     84 H37        -10.1840    -0.2880    -0.5590 h1         1 BJJ       0.035200
     85 H38        -10.4130     1.9380     0.6390 ha         1 BJJ       0.118500
     86 H39        -10.7960     2.9960     2.8590 ha         1 BJJ       0.111000
     87 H40        -10.1710     1.7840     4.9460 ha         1 BJJ       0.110000
     88 H41         -9.1600    -0.4910     4.8090 ha         1 BJJ       0.111000
     89 H42         -8.7760    -1.5550     2.5950 ha         1 BJJ       0.118500
     90 H44         -7.3240    -0.2850     0.1790 hn         1 BJJ       0.417000
@<TRIPOS>BOND
     1     1     2 2   
     2     1     5 1   
     3     1     7 1   
     4     2     3 1   
     5     2     6 1   
     6     3     4 1   
     7     3    48 1   
     8     3    49 1   
     9     4    40 1   
    10     4    50 1   
    11     4    51 1   
    12     5    40 1   
    13     5    52 1   
    14     5    53 1   
    15     6     9 1   
    16     6    38 1   
    17     7     8 1   
    18     7    38 2   
    19     8    17 ar  
    20     8    21 ar  
    21     9    11 1   
    22     9    54 1   
    23     9    55 1   
    24    10    45 1   
    25    10    56 1   
    26    10    57 1   
    27    10    58 1   
    28    11    12 1   
    29    11    59 1   
    30    11    60 1   
    31    12    39 1   
    32    12    61 1   
    33    12    62 1   
    34    13    14 1   
    35    13    39 1   
    36    13    63 1   
    37    13    64 1   
    38    14    44 1   
    39    14    65 1   
    40    14    66 1   
    41    15    16 1   
    42    15    44 1   
    43    15    67 1   
    44    15    68 1   
    45    16    39 1   
    46    16    69 1   
    47    16    70 1   
    48    17    18 ar  
    49    17    71 1   
    50    18    19 ar  
    51    18    72 1   
    52    19    20 ar  
    53    19    46 1   
    54    20    21 ar  
    55    20    22 1   
    56    21    73 1   
    57    22    23 1   
    58    22    74 1   
    59    22    75 1   
    60    23    24 1   
    61    23    76 1   
    62    23    77 1   
    63    24    25 ar  
    64    24    29 ar  
    65    25    26 ar  
    66    25    78 1   
    67    26    27 ar  
    68    26    30 1   
    69    27    28 ar  
    70    27    47 1   
    71    28    29 ar  
    72    28    79 1   
    73    29    80 1   
    74    30    41 1   
    75    30    81 1   
    76    30    82 1   
    77    31    32 1   
    78    31    41 1   
    79    31    83 1   
    80    31    84 1   
    81    32    33 ar  
    82    32    37 ar  
    83    33    34 ar  
    84    33    85 1   
    85    34    35 ar  
    86    34    86 1   
    87    35    36 ar  
    88    35    87 1   
    89    36    37 ar  
    90    36    88 1   
    91    37    89 1   
    92    40    45 1   
    93    41    90 1   
    94    42    45 2   
    95    43    45 2   
@<TRIPOS>SUBSTRUCTURE
     1 BJJ         1 TEMP              0 ****  ****    0 ROOT
