@<TRIPOS>MOLECULE
BJJ
   90    95     1     0     0
SMALL
bcc


@<TRIPOS>ATOM
      1 C1           4.4460    -1.8310    -0.4210 cc         1 BJJ      -0.262600
      2 C2           5.2940    -0.7700    -0.6270 cd         1 BJJ      -0.080600
      3 C3           6.7570    -0.7820    -0.3770 c6         1 BJJ      -0.007100
      4 C4           7.0430    -1.9650     0.5400 c6         1 BJJ       0.203800
      5 C6           4.9320    -3.1680     0.0320 c6         1 BJJ       0.287100
      6 N13          4.5350     0.2650    -1.0290 na         1 BJJ       0.130400
      7 C15          3.1580    -1.3170    -0.7000 cc         1 BJJ       0.389800
      8 C20          1.8400    -1.9530    -0.6070 ca         1 BJJ      -0.109500
      9 C22          4.9660     1.6170    -1.3140 c3         1 BJJ       0.053300
     10 C28          6.9730    -4.9550     2.0040 c3         1 BJJ      -0.272300
     11 C32          4.8400     2.5340    -0.1050 c3         1 BJJ      -0.099400
     12 C34          5.3090     3.9410    -0.4490 c3         1 BJJ       0.170800
     13 C38          6.0480     4.6330     1.7450 c6         1 BJJ       0.125300
     14 C39          5.7950     5.6250     2.8650 c6         1 BJJ       0.130400
     15 C41          5.0370     7.2070     1.3460 c6         1 BJJ       0.130400
     16 C42          5.2800     6.2510     0.1940 c6         1 BJJ       0.125300
     17 C49          1.6880    -3.3330    -0.4840 ca         1 BJJ      -0.112000
     18 C50          0.4270    -3.9000    -0.3950 ca         1 BJJ      -0.124000
     19 C51         -0.6950    -3.0910    -0.4260 ca         1 BJJ       0.035400
     20 C52         -0.5910    -1.7050    -0.5380 ca         1 BJJ      -0.073300
     21 C53          0.6860    -1.1670    -0.6300 ca         1 BJJ      -0.096000
     22 C62         -1.7890    -0.8030    -0.5970 c3         1 BJJ      -0.029100
     23 C64         -2.3640    -0.7020    -2.0190 c3         1 BJJ      -0.028100
     24 C66         -3.6010     0.1480    -2.0410 ca         1 BJJ      -0.079300
     25 C68         -4.8430    -0.4100    -1.7500 ca         1 BJJ      -0.115000
     26 C69         -6.0100     0.3440    -1.7030 ca         1 BJJ      -0.076300
     27 C70         -5.9020     1.7100    -1.9550 ca         1 BJJ       0.053400
     28 C71         -4.6830     2.2960    -2.2540 ca         1 BJJ      -0.127000
     29 C72         -3.5380     1.5140    -2.2920 ca         1 BJJ      -0.114000
     30 C81         -7.3170    -0.3040    -1.3450 c3         1 BJJ       0.213100
     31 C85         -9.0630    -0.2980     0.3430 c3         1 BJJ       0.212100
     32 C87         -9.4880     0.3390     1.6390 ca         1 BJJ      -0.091300
     33 C89         -9.3250     1.7120     1.8270 ca         1 BJJ      -0.113000
     34 C90         -9.7320     2.3170     3.0070 ca         1 BJJ      -0.134000
     35 C91        -10.3020     1.5560     4.0220 ca         1 BJJ      -0.126000
     36 C92        -10.4600     0.1890     3.8480 ca         1 BJJ      -0.134000
     37 C93        -10.0530    -0.4140     2.6630 ca         1 BJJ      -0.113000
     38 N14          3.2480    -0.0460    -1.0680 nd         1 BJJ      -0.515800
     39 N36          5.1340     4.8780     0.6430 n3         1 BJJ      -0.712600
     40 N5           6.3990    -3.1640    -0.0040 n3         1 BJJ      -0.733500
     41 N83         -7.7190     0.1040    -0.0140 n7         1 BJJ      -0.810200
     42 O26          8.5600    -4.4360    -0.0240 o          1 BJJ      -0.599800
     43 O30          6.3980    -5.6220    -0.4700 o          1 BJJ      -0.599800
     44 O40          5.9150     6.9580     2.4210 os         1 BJJ      -0.401600
     45 S24          7.1460    -4.6140     0.2660 s6         1 BJJ       1.233900
     46 CL6         -2.2580    -3.8410    -0.3180 cl         1 BJJ      -0.117400
     47 CL9         -7.3170     2.7160    -1.9320 cl         1 BJJ      -0.107400
     48 H1           7.3230    -0.8790    -1.3070 hc         1 BJJ       0.067200
     49 H2           7.0910     0.1340     0.1130 hc         1 BJJ       0.067200
     50 H3           8.1160    -2.1240     0.6050 h1         1 BJJ       0.058200
     51 H4           6.6730    -1.7520     1.5490 h1         1 BJJ       0.058200
     52 H5           4.5480    -3.3920     1.0370 h1         1 BJJ       0.061700
     53 H6           4.5840    -3.9550    -0.6350 h1         1 BJJ       0.061700
     54 H7           5.9990     1.5740    -1.6610 h1         1 BJJ       0.067200
     55 H8           4.3650     1.9850    -2.1470 h1         1 BJJ       0.067200
     56 H9           5.9180    -5.0150     2.2610 h1         1 BJJ       0.101033
     57 H10          7.4550    -5.9100     2.2080 h1         1 BJJ       0.101033
     58 H11          7.4560    -4.1690     2.5800 h1         1 BJJ       0.101033
     59 H12          3.7990     2.5670     0.2230 hc         1 BJJ       0.062700
     60 H13          5.4250     2.1170     0.7190 hc         1 BJJ       0.062700
     61 H14          6.3580     3.9080    -0.7920 h1         1 BJJ       0.032200
     62 H15          4.7210     4.3050    -1.2970 h1         1 BJJ       0.032200
     63 H16          7.1010     4.7030     1.4170 h1         1 BJJ       0.040700
     64 H17          5.9010     3.6270     2.1410 h1         1 BJJ       0.040700
     65 H18          4.7920     5.4490     3.2810 h1         1 BJJ       0.052700
     66 H19          6.5220     5.4790     3.6650 h1         1 BJJ       0.052700
     67 H20          5.2010     8.2360     1.0210 h1         1 BJJ       0.052700
     68 H21          3.9910     7.1180     1.6760 h1         1 BJJ       0.052700
     69 H22          4.5530     6.4550    -0.5950 h1         1 BJJ       0.040700
     70 H23          6.2830     6.4400    -0.2300 h1         1 BJJ       0.040700
     71 H24          2.5410    -3.9940    -0.4690 ha         1 BJJ       0.136000
     72 H25          0.3250    -4.9730    -0.3050 ha         1 BJJ       0.149000
     73 H26          0.7820    -0.0920    -0.7130 ha         1 BJJ       0.150000
     74 H27         -2.5680    -1.1520     0.0840 hc         1 BJJ       0.057700
     75 H28         -1.5020     0.1940    -0.2570 hc         1 BJJ       0.057700
     76 H29         -1.6040    -0.2840    -2.6820 hc         1 BJJ       0.055700
     77 H30         -2.5950    -1.7020    -2.3920 hc         1 BJJ       0.055700
     78 H31         -4.9130    -1.4740    -1.5520 ha         1 BJJ       0.133000
     79 H32         -4.6220     3.3570    -2.4560 ha         1 BJJ       0.146000
     80 H33         -2.5880     1.9790    -2.5260 ha         1 BJJ       0.134000
     81 H34         -8.0940     0.0130    -2.0470 h1         1 BJJ       0.040700
     82 H35         -7.2200    -1.3920    -1.4620 h1         1 BJJ       0.040700
     83 H36         -9.1970    -1.3890     0.4070 h1         1 BJJ       0.035200
     84 H37         -9.7320     0.0400    -0.4560 h1         1 BJJ       0.035200
     85 H38         -8.8720     2.3020     1.0400 ha         1 BJJ       0.136500
     86 H39         -9.6030     3.3840     3.1380 ha         1 BJJ       0.129000
     87 H40        -10.6180     2.0280     4.9440 ha         1 BJJ       0.128000
     88 H41        -10.8950    -0.4120     4.6360 ha         1 BJJ       0.129000
     89 H42        -10.1760    -1.4830     2.5350 ha         1 BJJ       0.136500
     90 H44         -7.0630    -0.2640     0.6640 hn         1 BJJ       0.361800
@<TRIPOS>BOND
     1     1     2 2   
     2     1     5 1   
     3     1     7 1   
     4     2     3 1   
     5     2     6 1   
     6     3     4 1   
     7     3    48 1   
     8     3    49 1   
     9     4    40 1   
    10     4    50 1   
    11     4    51 1   
    12     5    40 1   
    13     5    52 1   
    14     5    53 1   
    15     6     9 1   
    16     6    38 1   
    17     7     8 1   
    18     7    38 2   
    19     8    17 ar  
    20     8    21 ar  
    21     9    11 1   
    22     9    54 1   
    23     9    55 1   
    24    10    45 1   
    25    10    56 1   
    26    10    57 1   
    27    10    58 1   
    28    11    12 1   
    29    11    59 1   
    30    11    60 1   
    31    12    39 1   
    32    12    61 1   
    33    12    62 1   
    34    13    14 1   
    35    13    39 1   
    36    13    63 1   
    37    13    64 1   
    38    14    44 1   
    39    14    65 1   
    40    14    66 1   
    41    15    16 1   
    42    15    44 1   
    43    15    67 1   
    44    15    68 1   
    45    16    39 1   
    46    16    69 1   
    47    16    70 1   
    48    17    18 ar  
    49    17    71 1   
    50    18    19 ar  
    51    18    72 1   
    52    19    20 ar  
    53    19    46 1   
    54    20    21 ar  
    55    20    22 1   
    56    21    73 1   
    57    22    23 1   
    58    22    74 1   
    59    22    75 1   
    60    23    24 1   
    61    23    76 1   
    62    23    77 1   
    63    24    25 ar  
    64    24    29 ar  
    65    25    26 ar  
    66    25    78 1   
    67    26    27 ar  
    68    26    30 1   
    69    27    28 ar  
    70    27    47 1   
    71    28    29 ar  
    72    28    79 1   
    73    29    80 1   
    74    30    41 1   
    75    30    81 1   
    76    30    82 1   
    77    31    32 1   
    78    31    41 1   
    79    31    83 1   
    80    31    84 1   
    81    32    33 ar  
    82    32    37 ar  
    83    33    34 ar  
    84    33    85 1   
    85    34    35 ar  
    86    34    86 1   
    87    35    36 ar  
    88    35    87 1   
    89    36    37 ar  
    90    36    88 1   
    91    37    89 1   
    92    40    45 1   
    93    41    90 1   
    94    42    45 2   
    95    43    45 2   
@<TRIPOS>SUBSTRUCTURE
     1 BJJ         1 TEMP              0 ****  ****    0 ROOT
