@<TRIPOS>MOLECULE
BJK
   23    23     1     0     0
SMALL
abcg2


@<TRIPOS>ATOM
      1 C4           1.5390    -0.2240     0.3680 ca         1 BJK      -0.198300
      2 C5           0.8110    -1.4010     0.3200 ca         1 BJK      -0.068000
      3 C6           3.0290    -0.2530     0.5000 c3         1 BJK       0.175900
      4 C7          -3.3840    -1.1380    -0.1260 c3         1 BJK       0.146900
      5 O           -1.1050     2.2440     0.0120 oh         1 BJK      -0.516100
      6 C2          -0.4950     1.0480     0.1070 ca         1 BJK       0.138100
      7 C1          -1.2300    -0.1520     0.0570 ca         1 BJK       0.111100
      8 O1          -2.5580     0.0100    -0.0930 os         1 BJK      -0.348100
      9 C3           0.8770     1.0000     0.2630 ca         1 BJK      -0.114000
     10 C           -0.5720    -1.3660     0.1640 ca         1 BJK      -0.157000
     11 N            3.6770    -0.1760    -0.8440 nz         1 BJK      -0.978000
     12 H1           1.3110    -2.3570     0.4090 ha         1 BJK       0.122000
     13 H3           3.4110     0.5880     1.0730 hx         1 BJK       0.104200
     14 H2           3.3800    -1.1750     0.9580 hx         1 BJK       0.104200
     15 H6          -3.1400    -1.7870    -0.9710 h1         1 BJK       0.058700
     16 H4          -3.3080    -1.7160     0.7990 h1         1 BJK       0.058700
     17 H5          -4.4040    -0.7820    -0.2370 h1         1 BJK       0.058700
     18 H7          -2.0600     2.1280    -0.0660 ho         1 BJK       0.501000
     19 H8           1.4330     1.9300     0.3110 ha         1 BJK       0.134000
     20 H9          -1.1230    -2.2970     0.1320 ha         1 BJK       0.143000
     21 H10          4.6940    -0.1890    -0.7720 hn         1 BJK       0.508000
     22 H11          3.4060    -0.9590    -1.4380 hn         1 BJK       0.508000
     23 H12          3.4220     0.6790    -1.3380 hn         1 BJK       0.508000
@<TRIPOS>BOND
     1     1     2 ar  
     2     1     3 1   
     3     1     9 ar  
     4     2    10 ar  
     5     2    12 1   
     6     3    11 1   
     7     3    13 1   
     8     3    14 1   
     9     4     8 1   
    10     4    15 1   
    11     4    16 1   
    12     4    17 1   
    13     5     6 1   
    14     5    18 1   
    15     6     7 ar  
    16     6     9 ar  
    17     7     8 1   
    18     7    10 ar  
    19     9    19 1   
    20    10    20 1   
    21    11    21 1   
    22    11    22 1   
    23    11    23 1   
@<TRIPOS>SUBSTRUCTURE
     1 BJK         1 TEMP              0 ****  ****    0 ROOT
