@<TRIPOS>MOLECULE
BJK
   23    23     1     0     0
SMALL
No Charge or Current Charge


@<TRIPOS>ATOM
      1 C4           1.5860    -0.1890     0.3730 ca         1 BJK      -0.198300
      2 C5           0.8440    -1.3830     0.3110 ca         1 BJK      -0.068000
      3 C6           3.0900    -0.2350     0.5320 c3         1 BJK       0.175900
      4 C7          -3.4450    -1.1690    -0.1520 c3         1 BJK       0.146900
      5 O           -1.1090     2.3010     0.0510 oh         1 BJK      -0.516100
      6 C2          -0.4740     1.0930     0.1350 ca         1 BJK       0.138100
      7 C1          -1.2220    -0.1030     0.0710 ca         1 BJK       0.111100
      8 O1          -2.5960    -0.0070    -0.0780 os         1 BJK      -0.348100
      9 C3           0.9210     1.0490     0.2850 ca         1 BJK      -0.114000
     10 C           -0.5540    -1.3450     0.1600 ca         1 BJK      -0.157000
     11 N            3.6590    -0.2210    -0.8490 nz         1 BJK      -0.978000
     12 H1           1.3500    -2.3450     0.3790 ha         1 BJK       0.122000
     13 H3           3.4560     0.6320     1.0930 hx         1 BJK       0.104200
     14 H2           3.4050    -1.1460     1.0540 hx         1 BJK       0.104200
     15 H6          -3.1760    -1.7960    -1.0120 h1         1 BJK       0.058700
     16 H4          -3.3660    -1.7710     0.7620 h1         1 BJK       0.058700
     17 H5          -4.4940    -0.8670    -0.2690 h1         1 BJK       0.058700
     18 H7          -2.0690     2.1130    -0.0490 ho         1 BJK       0.501000
     19 H8           1.4830     1.9790     0.3340 ha         1 BJK       0.134000
     20 H9          -1.0980    -2.2840     0.1150 ha         1 BJK       0.143000
     21 H10          4.6900    -0.2510    -0.8630 hn         1 BJK       0.508000
     22 H11          3.3420    -1.0210    -1.4150 hn         1 BJK       0.508000
     23 H12          3.3890     0.6200    -1.3780 hn         1 BJK       0.508000
@<TRIPOS>BOND
     1     1     2 ar  
     2     1     3 1   
     3     1     9 ar  
     4     2    10 ar  
     5     2    12 1   
     6     3    11 1   
     7     3    13 1   
     8     3    14 1   
     9     4     8 1   
    10     4    15 1   
    11     4    16 1   
    12     4    17 1   
    13     5     6 1   
    14     5    18 1   
    15     6     7 ar  
    16     6     9 ar  
    17     7     8 1   
    18     7    10 ar  
    19     9    19 1   
    20    10    20 1   
    21    11    21 1   
    22    11    22 1   
    23    11    23 1   
@<TRIPOS>SUBSTRUCTURE
     1 BJK         1 TEMP              0 ****  ****    0 ROOT
