@<TRIPOS>MOLECULE
BJL
   41    41     1     0     0
SMALL
abcg2


@<TRIPOS>ATOM
      1 CB1         -3.0600     1.0010     0.6150 c3         1 BJL      -0.037100
      2 CG          -3.1590    -0.4890     0.4540 ca         1 BJL      -0.078300
      3 CD1         -3.7350    -1.0460    -0.6870 ca         1 BJL      -0.076000
      4 CD2         -2.6500    -1.3640     1.4070 ca         1 BJL      -0.076000
      5 CE1         -3.8040    -2.4170    -0.8740 ca         1 BJL      -0.177000
      6 CE2         -2.7090    -2.7410     1.2390 ca         1 BJL      -0.177000
      7 CZ          -3.2870    -3.2760     0.0930 ca         1 BJL       0.109100
      8 OH          -3.3770    -4.6060    -0.1290 oh         1 BJL      -0.547100
      9 C1          -1.9150     3.1590    -0.0910 c          1 BJL       0.717000
     10 C15          1.6300     0.2660     0.1770 c3         1 BJL      -0.197400
     11 C17          2.9080     0.9350    -0.3280 c3         1 BJL       0.136300
     12 C19          4.1280     0.2500     0.2710 c          1 BJL       0.551100
     13 C22          5.3610    -1.7750     0.2920 c3         1 BJL       0.164600
     14 C23          5.2710    -3.1290    -0.3680 c3         1 BJL      -0.095100
     15 CA1         -1.8940     1.6090    -0.1760 c3         1 BJL      -0.038300
     16 N1          -0.6500     1.0380     0.2760 ns         1 BJL      -0.448900
     17 O16          0.4040     1.0460    -1.7220 o          1 BJL      -0.624100
     18 O18          2.9270     2.3070    -0.0740 oh         1 BJL      -0.609000
     19 O20          4.8580     0.7610     1.0810 o          1 BJL      -0.499000
     20 O21          4.2710    -0.9760    -0.2010 os         1 BJL      -0.446100
     21 H1          -3.9780     1.4800     0.2740 hc         1 BJL       0.058200
     22 H2          -2.9500     1.2550     1.6750 hc         1 BJL       0.058200
     23 H3          -4.1470    -0.3960    -1.4510 ha         1 BJL       0.113500
     24 H4          -2.2000    -0.9680     2.3100 ha         1 BJL       0.113500
     25 H5          -4.2600    -2.8250    -1.7680 ha         1 BJL       0.106500
     26 H6          -2.3050    -3.3930     2.0060 ha         1 BJL       0.106500
     27 H7          -3.0040    -5.0940     0.6130 ho         1 BJL       0.452000
     28 H8           1.5610     0.3600     1.2640 hc         1 BJL       0.056200
     29 H9           1.6570    -0.8040    -0.0420 hc         1 BJL       0.056200
     30 H10          2.9560     0.8160    -1.4140 h1         1 BJL       0.119700
     31 H11          5.2880    -1.8630     1.3780 h1         1 BJL       0.043200
     32 H12          6.3070    -1.2860     0.0540 h1         1 BJL       0.043200
     33 H13          4.3340    -3.6310    -0.1280 hc         1 BJL       0.043033
     34 H14          5.3610    -3.0540    -1.4520 hc         1 BJL       0.043033
     35 H15          6.0880    -3.7550    -0.0080 hc         1 BJL       0.043033
     36 H16         -2.0200     1.3320    -1.2260 h1         1 BJL       0.069700
     37 H17         -0.5180     0.9430     1.2700 hn         1 BJL       0.292500
     38 H19          2.8770     2.4540     0.8770 ho         1 BJL       0.454000
     39 OXT         -2.9370     3.6930    -0.5660 o          1 BJL      -0.717500
     40 C14          0.4080     0.8420    -0.5140 c          1 BJL       0.612100
     41 O1          -0.9410     3.7220     0.4330 o          1 BJL      -0.717500
@<TRIPOS>BOND
     1     1     2 1   
     2     1    15 1   
     3     1    21 1   
     4     1    22 1   
     5     2     3 ar  
     6     2     4 ar  
     7     3     5 ar  
     8     3    23 1   
     9     4     6 ar  
    10     4    24 1   
    11     5     7 ar  
    12     5    25 1   
    13     6     7 ar  
    14     6    26 1   
    15     7     8 1   
    16     8    27 1   
    17     9    15 1   
    18     9    39 1   
    19     9    41 1   
    20    10    11 1   
    21    10    28 1   
    22    10    29 1   
    23    10    40 1   
    24    11    12 1   
    25    11    18 1   
    26    11    30 1   
    27    12    19 2   
    28    12    20 1   
    29    13    14 1   
    30    13    20 1   
    31    13    31 1   
    32    13    32 1   
    33    14    33 1   
    34    14    34 1   
    35    14    35 1   
    36    15    16 1   
    37    15    36 1   
    38    16    37 1   
    39    16    40 1   
    40    17    40 2   
    41    18    38 1   
@<TRIPOS>SUBSTRUCTURE
     1 BJL         1 TEMP              0 ****  ****    0 ROOT
