@<TRIPOS>MOLECULE
BJL
   41    41     1     0     0
SMALL
No Charge or Current Charge


@<TRIPOS>ATOM
      1 CB1         -3.1630     1.0730     0.6070 c3         1 BJL      -0.037100
      2 CG          -3.0600    -0.4310     0.3700 ca         1 BJL      -0.078300
      3 CD1         -3.5360    -0.9930    -0.8310 ca         1 BJL      -0.076000
      4 CD2         -2.4860    -1.2690     1.3470 ca         1 BJL      -0.076000
      5 CE1         -3.4390    -2.3780    -1.0510 ca         1 BJL      -0.177000
      6 CE2         -2.3880    -2.6540     1.1230 ca         1 BJL      -0.177000
      7 CZ          -2.8650    -3.2070    -0.0760 ca         1 BJL       0.109100
      8 OH          -2.7740    -4.5480    -0.2960 oh         1 BJL      -0.547100
      9 C1          -2.1960     3.4110     0.1770 c          1 BJL       0.717000
     10 C15          1.3920     0.1280     0.3900 c3         1 BJL      -0.197400
     11 C17          2.6340     0.7290    -0.3080 c3         1 BJL       0.136300
     12 C19          3.9650     0.1130     0.2190 c          1 BJL       0.551100
     13 C22          5.3160    -1.8820     0.2370 c3         1 BJL       0.164600
     14 C23          5.2240    -3.3200    -0.2980 c3         1 BJL      -0.095100
     15 CA1         -2.0330     1.8830    -0.0770 c3         1 BJL      -0.038300
     16 N1          -0.6890     1.4230     0.3530 ns         1 BJL      -0.448900
     17 O16         -0.1990     0.0630    -1.4200 o          1 BJL      -0.624100
     18 O18          2.6070     2.1670    -0.1470 oh         1 BJL      -0.609000
     19 O20          4.8130     0.7570     0.8270 o          1 BJL      -0.499000
     20 O21          4.1160    -1.1980    -0.1590 os         1 BJL      -0.446100
     21 H1          -4.1300     1.4400     0.2400 hc         1 BJL       0.058200
     22 H2          -3.1530     1.2830     1.6840 hc         1 BJL       0.058200
     23 H3          -3.9780    -0.3560    -1.5940 ha         1 BJL       0.113500
     24 H4          -2.1120    -0.8470     2.2770 ha         1 BJL       0.113500
     25 H5          -3.8070    -2.8060    -1.9800 ha         1 BJL       0.106500
     26 H6          -1.9410    -3.2890     1.8850 ha         1 BJL       0.106500
     27 H7          -2.3510    -4.9620     0.4860 ho         1 BJL       0.452000
     28 H8           1.3710     0.4620     1.4350 hc         1 BJL       0.056200
     29 H9           1.4690    -0.9650     0.3580 hc         1 BJL       0.056200
     30 H10          2.5940     0.4630    -1.3740 h1         1 BJL       0.119700
     31 H11          5.4120    -1.9040     1.3310 h1         1 BJL       0.043200
     32 H12          6.2050    -1.3910    -0.1820 h1         1 BJL       0.043200
     33 H13          4.3500    -3.8320     0.1200 hc         1 BJL       0.043033
     34 H14          5.1430    -3.3200    -1.3910 hc         1 BJL       0.043033
     35 H15          6.1210    -3.8860    -0.0190 hc         1 BJL       0.043033
     36 H16         -2.1180     1.7350    -1.1610 h1         1 BJL       0.069700
     37 H17         -0.3250     1.7730     1.2310 hn         1 BJL       0.292500
     38 H19          3.4420     2.4140     0.3150 ho         1 BJL       0.454000
     39 OXT         -2.4780     4.1270    -0.7740 o          1 BJL      -0.717500
     40 C14          0.1080     0.5300    -0.3310 c          1 BJL       0.612100
     41 O1          -1.9670     3.8450     1.2990 o          1 BJL      -0.717500
@<TRIPOS>BOND
     1     1     2 1   
     2     1    15 1   
     3     1    21 1   
     4     1    22 1   
     5     2     3 ar  
     6     2     4 ar  
     7     3     5 ar  
     8     3    23 1   
     9     4     6 ar  
    10     4    24 1   
    11     5     7 ar  
    12     5    25 1   
    13     6     7 ar  
    14     6    26 1   
    15     7     8 1   
    16     8    27 1   
    17     9    15 1   
    18     9    39 1   
    19     9    41 1   
    20    10    11 1   
    21    10    28 1   
    22    10    29 1   
    23    10    40 1   
    24    11    12 1   
    25    11    18 1   
    26    11    30 1   
    27    12    19 2   
    28    12    20 1   
    29    13    14 1   
    30    13    20 1   
    31    13    31 1   
    32    13    32 1   
    33    14    33 1   
    34    14    34 1   
    35    14    35 1   
    36    15    16 1   
    37    15    36 1   
    38    16    37 1   
    39    16    40 1   
    40    17    40 2   
    41    18    38 1   
@<TRIPOS>SUBSTRUCTURE
     1 BJL         1 TEMP              0 ****  ****    0 ROOT
