@<TRIPOS>MOLECULE
BJM
   50    54     1     0     0
SMALL
No Charge or Current Charge


@<TRIPOS>ATOM
      1 C1          46.7780    50.8910    35.1030 c6         1 BJM      -0.021000
      2 C2          46.4290    51.6600    36.4460 c3         1 BJM       0.107500
      3 C3          47.2940    49.4330    35.4210 c6         1 BJM      -0.107400
      4 C8          47.6340    48.6360    34.1300 c6         1 BJM       0.181000
      5 C9          45.8050    50.0240    32.8700 c6         1 BJM      -0.057700
      6 C10         48.2080    50.9070    32.9540 c6         1 BJM      -0.057700
      7 C13         46.3370    48.5800    33.2360 c6         1 BJM      -0.078900
      8 C14         48.7130    49.4540    33.3210 c6         1 BJM      -0.078900
      9 C16         46.9130    50.7960    32.0910 c6         1 BJM      -0.070400
     10 C19         47.0380    48.9820    40.0590 cx         1 BJM      -0.146700
     11 C20         46.8750    48.2420    38.7520 cx         1 BJM      -0.123400
     12 C21         48.4910    49.4080    40.4000 c5         1 BJM      -0.055400
     13 C22         50.1600    50.4740    38.7590 c2         1 BJM       0.414200
     14 N23         50.4030    49.5160    37.9310 n2         1 BJM      -0.736100
     15 C4          45.4950    50.7720    34.1980 c6         1 BJM      -0.064900
     16 C5          47.8820    51.6510    34.2800 c6         1 BJM      -0.064900
     17 C6          47.6200    51.6790    37.4940 c          1 BJM       0.576100
     18 N7          45.8400    53.0250    36.1970 n8         1 BJM      -0.985200
     19 N11         47.6830    50.6960    38.5160 n          1 BJM      -0.367800
     20 O12         48.4630    52.5720    37.4540 o          1 BJM      -0.621100
     21 O15         48.1020    47.3240    34.4420 oh         1 BJM      -0.667000
     22 C17         46.6650    49.7320    38.8210 cx         1 BJM       0.050700
     23 C18         48.8140    50.6660    39.4840 c5         1 BJM       0.047400
     24 H1          45.6180    51.0830    36.9030 h1         1 BJM       0.059700
     25 H2          46.5300    48.8870    35.9910 hc         1 BJM       0.056700
     26 H3          48.1870    49.4740    36.0570 hc         1 BJM       0.056700
     27 H4          44.8960    49.9470    32.2580 hc         1 BJM       0.050700
     28 H5          48.9860    51.4470    32.3980 hc         1 BJM       0.050700
     29 H6          45.5500    48.0190    33.7580 hc         1 BJM       0.048700
     30 H7          46.5450    48.0210    32.3130 hc         1 BJM       0.048700
     31 H8          48.9750    48.9140    32.4000 hc         1 BJM       0.048700
     32 H9          49.6420    49.5250    33.9030 hc         1 BJM       0.048700
     33 H10         47.1350    50.2810    31.1450 hc         1 BJM       0.041700
     34 H11         46.5540    51.7980    31.8190 hc         1 BJM       0.041700
     35 H13         45.9940    47.6170    38.6270 hc         1 BJM       0.088200
     36 H14         47.7650    47.8780    38.2450 hc         1 BJM       0.088200
     37 H15         49.1900    48.5800    40.2340 hc         1 BJM       0.059200
     38 H16         48.5900    49.6720    41.4590 hc         1 BJM       0.059200
     39 H17         50.9640    51.1780    38.9520 h4         1 BJM      -0.038200
     40 H19         51.3700    49.6070    37.5870 hn         1 BJM       0.377400
     41 H22         45.0950    51.7660    33.9580 hc         1 BJM       0.051200
     42 H23         44.6970    50.2470    34.7410 hc         1 BJM       0.051200
     43 H24         48.8010    51.7510    34.8730 hc         1 BJM       0.051200
     44 H25         47.5550    52.6740    34.0490 hc         1 BJM       0.051200
     45 H26         45.5320    53.4300    37.0900 hn         1 BJM       0.405500
     46 H27         46.6000    53.6540    35.9120 hn         1 BJM       0.405500
     47 H29         48.8790    47.4390    35.0300 ho         1 BJM       0.441000
     48 H30         45.6640    50.1650    38.7820 h1         1 BJM       0.103700
     49 H31         48.8270    51.5870    40.0800 h1         1 BJM       0.085700
     50 H12         46.2900    48.8530    40.8390 hc         1 BJM       0.093700
@<TRIPOS>BOND
     1     1     2 1   
     2     1     3 1   
     3     1    15 1   
     4     1    16 1   
     5     2    17 1   
     6     2    18 1   
     7     2    24 1   
     8     3     4 1   
     9     3    25 1   
    10     3    26 1   
    11     4     7 1   
    12     4     8 1   
    13     4    21 1   
    14     5     7 1   
    15     5     9 1   
    16     5    15 1   
    17     5    27 1   
    18     6     8 1   
    19     6     9 1   
    20     6    16 1   
    21     6    28 1   
    22     7    29 1   
    23     7    30 1   
    24     8    31 1   
    25     8    32 1   
    26     9    33 1   
    27     9    34 1   
    28    10    11 1   
    29    10    12 1   
    30    10    22 1   
    31    10    50 1   
    32    11    22 1   
    33    11    35 1   
    34    11    36 1   
    35    12    23 1   
    36    12    37 1   
    37    12    38 1   
    38    13    14 2   
    39    13    23 1   
    40    13    39 1   
    41    14    40 1   
    42    15    41 1   
    43    15    42 1   
    44    16    43 1   
    45    16    44 1   
    46    17    19 1   
    47    17    20 2   
    48    18    45 1   
    49    18    46 1   
    50    19    22 1   
    51    19    23 1   
    52    21    47 1   
    53    22    48 1   
    54    23    49 1   
@<TRIPOS>SUBSTRUCTURE
     1 BJM         1 TEMP              0 ****  ****    0 ROOT
