@<TRIPOS>MOLECULE
BJM
   50    54     1     0     0
SMALL
abcg2


@<TRIPOS>ATOM
      1 C1          46.7940    50.8860    35.0990 c6         1 BJM      -0.021000
      2 C2          46.4540    51.5830    36.4460 c3         1 BJM       0.107500
      3 C3          47.3470    49.4700    35.3500 c6         1 BJM      -0.107400
      4 C8          47.6300    48.7500    34.0290 c6         1 BJM       0.181000
      5 C9          45.7840    50.0290    32.9440 c6         1 BJM      -0.057700
      6 C10         48.1080    50.9570    32.9460 c6         1 BJM      -0.057700
      7 C13         46.3400    48.6260    33.2240 c6         1 BJM      -0.078900
      8 C14         48.6590    49.5510    33.2270 c6         1 BJM      -0.078900
      9 C16         46.8090    50.8380    32.1380 c6         1 BJM      -0.070400
     10 C19         47.0680    49.0700    40.0510 cx         1 BJM      -0.146700
     11 C20         47.2410    48.2110    38.8220 cx         1 BJM      -0.123400
     12 C21         48.2600    49.8430    40.5770 c5         1 BJM      -0.055400
     13 C22         50.1030    50.0860    38.8560 c2         1 BJM       0.414200
     14 N23         50.2640    49.5550    37.7190 n2         1 BJM      -0.736100
     15 C4          45.5020    50.7470    34.2700 c6         1 BJM      -0.064900
     16 C5          47.8300    51.6740    34.2740 c6         1 BJM      -0.064900
     17 C6          47.6450    51.5780    37.4170 c          1 BJM       0.576100
     18 N7          45.9760    52.9530    36.2410 n8         1 BJM      -0.985200
     19 N11         47.7030    50.6420    38.3870 n          1 BJM      -0.367800
     20 O12         48.5190    52.4480    37.3210 o          1 BJM      -0.621100
     21 O15         48.1020    47.4140    34.2820 oh         1 BJM      -0.667000
     22 C17         46.7290    49.6200    38.7010 cx         1 BJM       0.050700
     23 C18         48.7990    50.6480    39.3610 c5         1 BJM       0.047400
     24 H1          45.6280    51.0220    36.8770 h1         1 BJM       0.059700
     25 H2          46.6290    48.8830    35.9280 hc         1 BJM       0.056700
     26 H3          48.2720    49.5190    35.9290 hc         1 BJM       0.056700
     27 H4          44.8540    49.9410    32.3760 hc         1 BJM       0.050700
     28 H5          48.8470    51.5280    32.3770 hc         1 BJM       0.050700
     29 H6          45.6170    48.0330    33.7900 hc         1 BJM       0.048700
     30 H7          46.5440    48.0980    32.2880 hc         1 BJM       0.048700
     31 H8          48.8750    49.0280    32.2910 hc         1 BJM       0.048700
     32 H9          49.5910    49.6140    33.7970 hc         1 BJM       0.048700
     33 H10         47.0070    50.3480    31.1800 hc         1 BJM       0.041700
     34 H11         46.4120    51.8340    31.9210 hc         1 BJM       0.041700
     35 H13         46.5210    47.4180    38.6700 hc         1 BJM       0.088200
     36 H14         48.2390    48.0030    38.4640 hc         1 BJM       0.088200
     37 H15         49.0340    49.2060    41.0070 hc         1 BJM       0.059200
     38 H16         47.9290    50.5330    41.3540 hc         1 BJM       0.059200
     39 H17         50.9130    50.1790    39.5870 h4         1 BJM      -0.038200
     40 H19         51.2280    49.2420    37.6030 hn         1 BJM       0.377400
     41 H22         45.0830    51.7350    34.0770 hc         1 BJM       0.051200
     42 H23         44.7630    50.1850    34.8510 hc         1 BJM       0.051200
     43 H24         48.7550    51.7780    34.8430 hc         1 BJM       0.051200
     44 H25         47.4550    52.6810    34.0730 hc         1 BJM       0.051200
     45 H26         45.5220    53.2750    37.0890 hn         1 BJM       0.405500
     46 H27         46.7780    53.5600    36.1070 hn         1 BJM       0.405500
     47 H29         48.9100    47.4820    34.8090 ho         1 BJM       0.441000
     48 H30         45.7150    49.8090    38.3930 h1         1 BJM       0.103700
     49 H31         49.0070    51.6800    39.6490 h1         1 BJM       0.085700
     50 H12         46.2780    48.8230    40.7470 hc         1 BJM       0.093700
@<TRIPOS>BOND
     1     1     2 1   
     2     1     3 1   
     3     1    15 1   
     4     1    16 1   
     5     2    17 1   
     6     2    18 1   
     7     2    24 1   
     8     3     4 1   
     9     3    25 1   
    10     3    26 1   
    11     4     7 1   
    12     4     8 1   
    13     4    21 1   
    14     5     7 1   
    15     5     9 1   
    16     5    15 1   
    17     5    27 1   
    18     6     8 1   
    19     6     9 1   
    20     6    16 1   
    21     6    28 1   
    22     7    29 1   
    23     7    30 1   
    24     8    31 1   
    25     8    32 1   
    26     9    33 1   
    27     9    34 1   
    28    10    11 1   
    29    10    12 1   
    30    10    22 1   
    31    10    50 1   
    32    11    22 1   
    33    11    35 1   
    34    11    36 1   
    35    12    23 1   
    36    12    37 1   
    37    12    38 1   
    38    13    14 2   
    39    13    23 1   
    40    13    39 1   
    41    14    40 1   
    42    15    41 1   
    43    15    42 1   
    44    16    43 1   
    45    16    44 1   
    46    17    19 1   
    47    17    20 2   
    48    18    45 1   
    49    18    46 1   
    50    19    22 1   
    51    19    23 1   
    52    21    47 1   
    53    22    48 1   
    54    23    49 1   
@<TRIPOS>SUBSTRUCTURE
     1 BJM         1 TEMP              0 ****  ****    0 ROOT
