@<TRIPOS>MOLECULE
BJN
   20    20     1     0     0
SMALL
bcc


@<TRIPOS>ATOM
      1 C1           1.3550    -0.0720     0.7160 c3         1 BJN      -0.038100
      2 C6          -0.8690    -1.1830     0.3080 ca         1 BJN       0.427200
      3 C5          -2.7520    -0.0530    -0.2830 ca         1 BJN       0.436200
      4 C4          -2.0910     1.1660    -0.2460 ca         1 BJN      -0.232300
      5 C3          -0.7480     1.1790     0.0910 ca         1 BJN      -0.080000
      6 C2          -0.1070    -0.0220     0.3760 ca         1 BJN      -0.253600
      7 N            3.6410     0.0470    -0.2240 nz         1 BJN      -0.837600
      8 C            2.1910     0.0840    -0.5440 c3         1 BJN       0.125800
      9 N1          -2.1570    -1.2080    -0.0100 nb         1 BJN      -0.640000
     10 H2           1.6010     0.7220     1.4250 hc         1 BJN       0.070700
     11 H1           1.5920    -1.0230     1.1990 hc         1 BJN       0.070700
     12 H3          -0.4080    -2.1410     0.5290 h4         1 BJN       0.020100
     13 H4          -3.8040    -0.0970    -0.5400 h4         1 BJN       0.043100
     14 H5          -2.6200     2.0810    -0.4730 ha         1 BJN       0.163000
     15 H6          -0.2040     2.1150     0.1380 ha         1 BJN       0.134000
     16 H9           3.9160    -0.8360     0.2050 hn         1 BJN       0.457467
     17 H8           4.2110     0.1570    -1.0620 hn         1 BJN       0.457467
     18 H7           3.9100     0.7930     0.4170 hn         1 BJN       0.457467
     19 H11          2.0040    -0.7210    -1.2510 hx         1 BJN       0.109200
     20 H10          2.0030     1.0340    -1.0380 hx         1 BJN       0.109200
@<TRIPOS>BOND
     1     1     6 1   
     2     1     8 1   
     3     1    10 1   
     4     1    11 1   
     5     2     6 ar  
     6     2     9 ar  
     7     2    12 1   
     8     3     4 ar  
     9     3     9 ar  
    10     3    13 1   
    11     4     5 ar  
    12     4    14 1   
    13     5     6 ar  
    14     5    15 1   
    15     7     8 1   
    16     7    16 1   
    17     7    17 1   
    18     7    18 1   
    19     8    19 1   
    20     8    20 1   
@<TRIPOS>SUBSTRUCTURE
     1 BJN         1 TEMP              0 ****  ****    0 ROOT
