@<TRIPOS>MOLECULE
BJN
   20    20     1     0     0
SMALL
No Charge or Current Charge


@<TRIPOS>ATOM
      1 C1           1.3550    -0.1180     0.6870 c3         1 BJN      -0.038100
      2 C6          -0.9260    -1.2230     0.3670 ca         1 BJN       0.361900
      3 C5          -2.8230    -0.0390    -0.2430 ca         1 BJN       0.370900
      4 C4          -2.1090     1.1700    -0.2830 ca         1 BJN      -0.149000
      5 C3          -0.7380     1.1680     0.0190 ca         1 BJN      -0.062000
      6 C2          -0.1300    -0.0570     0.3510 ca         1 BJN      -0.188300
      7 N            3.7030     0.0750    -0.2100 nz         1 BJN      -0.975000
      8 C            2.2330     0.1300    -0.5520 c3         1 BJN       0.097600
      9 N1          -2.2470    -1.2230     0.0760 nb         1 BJN      -0.640000
     10 H2           1.5920     0.6310     1.4520 hc         1 BJN       0.070700
     11 H1           1.6120    -1.0940     1.1190 hc         1 BJN       0.070700
     12 H3          -0.4920    -2.1900     0.6190 h4         1 BJN       0.020100
     13 H4          -3.8880    -0.0620    -0.4730 h4         1 BJN       0.043100
     14 H5          -2.6200     2.0920    -0.5440 ha         1 BJN       0.145000
     15 H6          -0.1660     2.0940    -0.0030 ha         1 BJN       0.116000
     16 H9           4.0020    -0.8370     0.1720 hn         1 BJN       0.512667
     17 H8           4.3140     0.2400    -1.0270 hn         1 BJN       0.512667
     18 H7           3.9890     0.7780     0.4890 hn         1 BJN       0.512667
     19 H11          2.0080    -0.6270    -1.3110 hx         1 BJN       0.109200
     20 H10          1.9960     1.1140    -0.9720 hx         1 BJN       0.109200
@<TRIPOS>BOND
     1     1     6 1   
     2     1     8 1   
     3     1    10 1   
     4     1    11 1   
     5     2     6 ar  
     6     2     9 ar  
     7     2    12 1   
     8     3     4 ar  
     9     3     9 ar  
    10     3    13 1   
    11     4     5 ar  
    12     4    14 1   
    13     5     6 ar  
    14     5    15 1   
    15     7     8 1   
    16     7    16 1   
    17     7    17 1   
    18     7    18 1   
    19     8    19 1   
    20     8    20 1   
@<TRIPOS>SUBSTRUCTURE
     1 BJN         1 TEMP              0 ****  ****    0 ROOT
