@<TRIPOS>MOLECULE
BJO
   38    39     1     0     0
SMALL
bcc


@<TRIPOS>ATOM
      1 OE1         42.5300    -9.9640   156.1580 o          1 BJO      -0.842300
      2 CD3         42.4110   -11.0190   156.8090 c          1 BJO       0.934600
      3 OE2         43.0650   -12.0700   156.6700 o          1 BJO      -0.842300
      4 CG1         41.3550   -11.0460   157.9390 c3         1 BJO      -0.212400
      5 CB1         40.3920    -9.8550   157.9130 c3         1 BJO      -0.058200
      6 CA1         39.4210    -9.9540   159.0410 c2         1 BJO       0.350800
      7 N           38.3160   -10.6160   158.8250 nv         1 BJO      -0.761600
      8 C1          39.7550    -9.3700   160.2910 cc         1 BJO       0.050200
      9 N2          40.7410    -8.5060   160.3680 nc         1 BJO      -0.481300
     10 CA2         40.8140    -8.0760   161.6450 cd         1 BJO       0.171600
     11 C2          39.7930    -8.7560   162.4390 c          1 BJO       0.603200
     12 O2          39.5170    -8.7180   163.6340 o          1 BJO      -0.679500
     13 N3          39.1360    -9.5400   161.5160 n          1 BJO      -0.349000
     14 CA3         38.2090   -10.5750   161.8980 c3         1 BJO      -0.071000
     15 C           38.7190   -12.0160   161.6150 c          1 BJO       0.907600
     16 O           37.8440   -12.8920   161.7070 o          1 BJO      -0.815800
     17 CB2         41.7940    -7.1140   161.9590 cf         1 BJO       0.032400
     18 CG2         42.1580    -6.4300   163.1040 cc         1 BJO      -0.226000
     19 CD1         43.2470    -5.4980   162.9940 cc         1 BJO      -0.014000
     20 CE1         43.6860    -4.7630   164.0420 cd         1 BJO      -0.328200
     21 CZ          43.0760    -4.8700   165.3570 c          1 BJO       0.580500
     22 OH          43.4590    -4.2040   166.3230 o          1 BJO      -0.648100
     23 CE2         41.9780    -5.8200   165.4530 cd         1 BJO      -0.328200
     24 CD2         41.5490    -6.5500   164.3970 cc         1 BJO      -0.014000
     25 OXT         39.9260   -12.1440   161.3570 o          1 BJO      -0.815800
     26 H11         40.7960   -11.9840   157.8850 hc         1 BJO       0.051700
     27 H12         41.8810   -11.0690   158.8990 hc         1 BJO       0.051700
     28 H10         40.9500    -8.9270   157.9920 hc         1 BJO       0.073700
     29 H9          39.8420    -9.8380   156.9700 hc         1 BJO       0.073700
     30 H           37.5910   -10.7500   159.5120 hn         1 BJO       0.454300
     31 H2          38.1350   -11.0150   157.9160 hn         1 BJO       0.454300
     32 H31         38.0570   -10.4760   162.9740 h1         1 BJO       0.036700
     33 H32         37.2220   -10.4030   161.4580 h1         1 BJO       0.036700
     34 H13         42.3850    -6.8650   161.0810 ha         1 BJO       0.117000
     35 H15         43.7280    -5.3880   162.0280 ha         1 BJO       0.135500
     36 H16         44.5100    -4.0710   163.9170 ha         1 BJO       0.118000
     37 H18         41.4970    -5.9330   166.4180 ha         1 BJO       0.118000
     38 H19         40.7300    -7.2440   164.5210 ha         1 BJO       0.135500
@<TRIPOS>BOND
     1     1     2 1   
     2     2     3 1   
     3     2     4 1   
     4     4     5 1   
     5     4    26 1   
     6     4    27 1   
     7     5     6 1   
     8     5    28 1   
     9     5    29 1   
    10     6     7 1   
    11     6     8 2   
    12     7    30 1   
    13     7    31 1   
    14     8     9 1   
    15     8    13 1   
    16     9    10 2   
    17    10    11 1   
    18    10    17 1   
    19    11    12 2   
    20    11    13 1   
    21    13    14 1   
    22    14    15 1   
    23    14    32 1   
    24    14    33 1   
    25    15    16 1   
    26    15    25 1   
    27    17    18 2   
    28    17    34 1   
    29    18    19 1   
    30    18    24 1   
    31    19    20 2   
    32    19    35 1   
    33    20    21 1   
    34    20    36 1   
    35    21    22 2   
    36    21    23 1   
    37    23    24 2   
    38    23    37 1   
    39    24    38 1   
@<TRIPOS>SUBSTRUCTURE
     1 BJO         1 TEMP              0 ****  ****    0 ROOT
