@<TRIPOS>MOLECULE
BJO
   38    39     1     0     0
SMALL
No Charge or Current Charge


@<TRIPOS>ATOM
      1 OE1         42.9300    -9.3300   156.2730 o          1 BJO      -0.842300
      2 CD3         41.9350   -10.0380   156.2040 c          1 BJO       0.934600
      3 OE2         41.3720   -10.3000   155.1490 o          1 BJO      -0.842300
      4 CG1         41.3120   -10.5540   157.5080 c3         1 BJO      -0.212400
      5 CB1         40.2770    -9.5330   158.0560 c3         1 BJO      -0.058200
      6 CA1         39.6120    -9.9860   159.3520 c2         1 BJO       0.350800
      7 N           38.4960   -10.7810   159.1010 nv         1 BJO      -0.761600
      8 C1          40.0740    -9.6750   160.6170 cc         1 BJO       0.050200
      9 N2          41.2280    -8.9290   160.7940 nc         1 BJO      -0.481300
     10 CA2         41.3780    -8.8350   162.1170 cd         1 BJO       0.171600
     11 C2          40.3160    -9.5190   162.8820 c          1 BJO       0.603200
     12 O2          40.1460    -9.6310   164.0960 o          1 BJO      -0.679500
     13 N3          39.5230   -10.0230   161.8620 n          1 BJO      -0.349000
     14 CA3         38.2380   -10.7350   162.1510 c3         1 BJO      -0.071000
     15 C           38.3050   -12.2820   162.1040 c          1 BJO       0.907600
     16 O           38.2470   -12.8170   161.0030 o          1 BJO      -0.815800
     17 CB2         42.4890    -8.1130   162.7380 cf         1 BJO       0.032400
     18 CG2         42.4780    -6.8610   163.3000 cc         1 BJO      -0.226000
     19 CD1         43.6660    -6.0400   163.3020 cc         1 BJO      -0.014000
     20 CE1         43.6680    -4.7830   163.8640 cd         1 BJO      -0.328200
     21 CZ          42.4800    -4.1980   164.4940 c          1 BJO       0.580500
     22 OH          42.4810    -3.0810   164.9950 o          1 BJO      -0.648100
     23 CE2         41.2920    -5.0570   164.4790 cd         1 BJO      -0.328200
     24 CD2         41.2920    -6.3140   163.9160 cc         1 BJO      -0.014000
     25 OXT         38.4200   -12.9080   163.1500 o          1 BJO      -0.815800
     26 H11         40.7600   -11.4820   157.3170 hc         1 BJO       0.051700
     27 H12         42.0830   -10.6490   158.2810 hc         1 BJO       0.051700
     28 H10         40.7760    -8.5680   158.2090 hc         1 BJO       0.073700
     29 H9          39.5190    -9.3390   157.2860 hc         1 BJO       0.073700
     30 H           38.3480   -11.5330   159.7800 hn         1 BJO       0.454300
     31 H2          38.3520   -11.0650   158.1390 hn         1 BJO       0.454300
     32 H31         37.8880   -10.4490   163.1510 h1         1 BJO       0.036700
     33 H32         37.4660   -10.3970   161.4500 h1         1 BJO       0.036700
     34 H13         43.4540    -8.3920   162.3170 ha         1 BJO       0.117000
     35 H15         44.5760    -6.4250   162.8470 ha         1 BJO       0.135500
     36 H16         44.5560    -4.1620   163.8680 ha         1 BJO       0.118000
     37 H18         40.4050    -4.6410   164.9410 ha         1 BJO       0.118000
     38 H19         40.3810    -6.9050   163.9350 ha         1 BJO       0.135500
@<TRIPOS>BOND
     1     1     2 1   
     2     2     3 1   
     3     2     4 1   
     4     4     5 1   
     5     4    26 1   
     6     4    27 1   
     7     5     6 1   
     8     5    28 1   
     9     5    29 1   
    10     6     7 1   
    11     6     8 2   
    12     7    30 1   
    13     7    31 1   
    14     8     9 1   
    15     8    13 1   
    16     9    10 2   
    17    10    11 1   
    18    10    17 1   
    19    11    12 2   
    20    11    13 1   
    21    13    14 1   
    22    14    15 1   
    23    14    32 1   
    24    14    33 1   
    25    15    16 1   
    26    15    25 1   
    27    17    18 2   
    28    17    34 1   
    29    18    19 1   
    30    18    24 1   
    31    19    20 2   
    32    19    35 1   
    33    20    21 1   
    34    20    36 1   
    35    21    22 2   
    36    21    23 1   
    37    23    24 2   
    38    23    37 1   
    39    24    38 1   
@<TRIPOS>SUBSTRUCTURE
     1 BJO         1 TEMP              0 ****  ****    0 ROOT
