@<TRIPOS>MOLECULE
BJQ
   27    27     1     0     0
SMALL
abcg2


@<TRIPOS>ATOM
      1 N            0.5130     1.4890     1.0220 nz         1 BJQ      -0.964000
      2 CA           0.9370     0.1660     0.5040 c3         1 BJQ       0.037300
      3 C            2.4270     0.2320     0.2220 c          1 BJQ       0.583100
      4 CB           0.1120    -0.2100    -0.7310 c3         1 BJQ      -0.040100
      5 CG          -1.3650    -0.2110    -0.4370 ca         1 BJQ      -0.164300
      6 CD1         -2.1860     0.8060    -0.9160 ca         1 BJQ      -0.111000
      7 CD2         -1.9260    -1.2190     0.3460 ca         1 BJQ      -0.111000
      8 CE1         -3.5440     0.8150    -0.6230 ca         1 BJQ      -0.094000
      9 CE2         -3.2810    -1.2100     0.6400 ca         1 BJQ      -0.094000
     10 CZ          -4.0940    -0.1920     0.1560 ca         1 BJQ      -0.075000
     11 O            3.0790     1.2350     0.3410 o          1 BJQ      -0.466000
     12 CM           4.2740    -1.0480    -0.4640 c3         1 BJQ       0.148900
     13 OXT          2.8770    -0.9390    -0.1580 os         1 BJQ      -0.411100
     14 HN2          0.6730     2.2440     0.3520 hn         1 BJQ       0.520000
     15 H3          -0.4840     1.4890     1.2480 hn         1 BJQ       0.520000
     16 HN1          1.0030     1.7470     1.8790 hn         1 BJQ       0.520000
     17 HA           0.7590    -0.5500     1.3100 hx         1 BJQ       0.131700
     18 HBC2         0.3390     0.4800    -1.5460 hc         1 BJQ       0.098700
     19 HBC1         0.4320    -1.2020    -1.0510 hc         1 BJQ       0.098700
     20 HD1         -1.7650     1.5930    -1.5300 ha         1 BJQ       0.117000
     21 HD2         -1.3010    -2.0200     0.7250 ha         1 BJQ       0.117000
     22 HE1         -4.1700     1.6100    -1.0070 ha         1 BJQ       0.137500
     23 HE2         -3.7050    -2.0020     1.2440 ha         1 BJQ       0.137500
     24 HZ          -5.1510    -0.1870     0.3850 ha         1 BJQ       0.140000
     25 HMC3         4.5440    -0.3970    -1.2940 h1         1 BJQ       0.074700
     26 HMC2         4.8820    -0.8030     0.4060 h1         1 BJQ       0.074700
     27 HMC1         4.4340    -2.0840    -0.7430 h1         1 BJQ       0.074700
@<TRIPOS>BOND
     1     1     2 1   
     2     1    14 1   
     3     1    15 1   
     4     1    16 1   
     5     2     3 1   
     6     2     4 1   
     7     2    17 1   
     8     3    11 2   
     9     3    13 1   
    10     4     5 1   
    11     4    18 1   
    12     4    19 1   
    13     5     6 ar  
    14     5     7 ar  
    15     6     8 ar  
    16     6    20 1   
    17     7     9 ar  
    18     7    21 1   
    19     8    10 ar  
    20     8    22 1   
    21     9    10 ar  
    22     9    23 1   
    23    10    24 1   
    24    12    13 1   
    25    12    25 1   
    26    12    26 1   
    27    12    27 1   
@<TRIPOS>SUBSTRUCTURE
     1 BJQ         1 TEMP              0 ****  ****    0 ROOT
