@<TRIPOS>MOLECULE
BJQ
   27    27     1     0     0
SMALL
No Charge or Current Charge


@<TRIPOS>ATOM
      1 N            0.4530     1.4960     1.1390 nz         1 BJQ      -0.964000
      2 CA           0.9520     0.2010     0.4840 c3         1 BJQ       0.037300
      3 C            2.4770     0.2310     0.1530 c          1 BJQ       0.583100
      4 CB           0.1050    -0.1240    -0.7670 c3         1 BJQ      -0.040100
      5 CG          -1.3880    -0.1570    -0.4530 ca         1 BJQ      -0.164300
      6 CD1         -2.2550     0.8080    -1.0030 ca         1 BJQ      -0.111000
      7 CD2         -1.9080    -1.1500     0.4000 ca         1 BJQ      -0.111000
      8 CE1         -3.6280     0.7790    -0.7010 ca         1 BJQ      -0.094000
      9 CE2         -3.2810    -1.1780     0.7010 ca         1 BJQ      -0.094000
     10 CZ          -4.1420    -0.2130     0.1510 ca         1 BJQ      -0.075000
     11 O            3.1780     1.2270     0.2760 o          1 BJQ      -0.466000
     12 CM           4.3560    -1.1490    -0.4670 c3         1 BJQ       0.148900
     13 OXT          2.9510    -1.0130    -0.1750 os         1 BJQ      -0.411100
     14 HN2          0.6010     2.3320     0.5530 hn         1 BJQ       0.520000
     15 H3          -0.5580     1.4760     1.3450 hn         1 BJQ       0.520000
     16 HN1          0.9190     1.7100     2.0350 hn         1 BJQ       0.520000
     17 HA           0.8310    -0.6200     1.1980 hx         1 BJQ       0.131700
     18 HBC2         0.3220     0.6140    -1.5510 hc         1 BJQ       0.098700
     19 HBC1         0.4180    -1.0940    -1.1740 hc         1 BJQ       0.098700
     20 HD1         -1.8700     1.5820    -1.6640 ha         1 BJQ       0.117000
     21 HD2         -1.2510    -1.9030     0.8300 ha         1 BJQ       0.117000
     22 HE1         -4.2940     1.5270    -1.1280 ha         1 BJQ       0.137500
     23 HE2         -3.6780    -1.9480     1.3590 ha         1 BJQ       0.137500
     24 HZ          -5.2050    -0.2350     0.3830 ha         1 BJQ       0.140000
     25 HMC3         4.6420    -0.5210    -1.3210 h1         1 BJQ       0.074700
     26 HMC2         4.9680    -0.8580     0.3960 h1         1 BJQ       0.074700
     27 HMC1         4.5970    -2.1890    -0.7180 h1         1 BJQ       0.074700
@<TRIPOS>BOND
     1     1     2 1   
     2     1    14 1   
     3     1    15 1   
     4     1    16 1   
     5     2     3 1   
     6     2     4 1   
     7     2    17 1   
     8     3    11 2   
     9     3    13 1   
    10     4     5 1   
    11     4    18 1   
    12     4    19 1   
    13     5     6 ar  
    14     5     7 ar  
    15     6     8 ar  
    16     6    20 1   
    17     7     9 ar  
    18     7    21 1   
    19     8    10 ar  
    20     8    22 1   
    21     9    10 ar  
    22     9    23 1   
    23    10    24 1   
    24    12    13 1   
    25    12    25 1   
    26    12    26 1   
    27    12    27 1   
@<TRIPOS>SUBSTRUCTURE
     1 BJQ         1 TEMP              0 ****  ****    0 ROOT
