@<TRIPOS>MOLECULE
BJS
   89    94     1     0     0
SMALL
No Charge or Current Charge


@<TRIPOS>ATOM
      1 C34         -3.9120     3.9320    -1.4980 c3         1 BJS       0.170800
      2 C30         -3.7860     1.4220    -2.0190 c3         1 BJS       0.081600
      3 C32         -3.9110     2.5000    -0.9210 c3         1 BJS      -0.103400
      4 N5          -6.6880    -2.5760     0.0480 n          1 BJS      -0.382800
      5 C24         -6.9930    -4.2750     2.0370 c          1 BJS       0.536100
      6 C20         -7.5480    -3.1370     1.0310 c          1 BJS       0.525100
      7 C1          -4.3940    -1.8740    -0.6540 cc         1 BJS      -0.227300
      8 C2          -4.8920    -0.6910    -1.0880 cd         1 BJS      -0.136300
      9 C6          -5.2540    -2.9800    -0.0860 c6         1 BJS       0.190300
     10 C4          -7.1900    -1.6340    -1.0000 c6         1 BJS       0.094000
     11 C3          -6.3550    -0.3350    -1.0730 c6         1 BJS      -0.036100
     12 C15         -2.9770    -1.8110    -0.7930 cc         1 BJS       0.322500
     13 C38         -3.2700     5.0400     0.6420 c6         1 BJS       0.124800
     14 C39         -3.6140     6.1540     1.6710 c6         1 BJS       0.151600
     15 C41         -4.6750     7.4580    -0.0400 c6         1 BJS       0.153600
     16 C42         -4.3630     6.3760    -1.1270 c6         1 BJS       0.146500
     17 C49         -5.4450     6.4530    -2.2430 c3         1 BJS      -0.091100
     18 C51         -1.9530    -2.8440    -0.4730 ca         1 BJS      -0.114500
     19 C53         -0.5770    -2.5070    -0.5830 ca         1 BJS      -0.057000
     20 C54          0.4410    -3.4390    -0.3030 ca         1 BJS       0.032000
     21 C55          0.0980    -4.7470     0.0890 ca         1 BJS       0.138000
     22 C56         -1.2520    -5.1050     0.1910 ca         1 BJS      -0.108000
     23 C57         -2.2640    -4.1720    -0.0890 ca         1 BJS      -0.084000
     24 C66          1.8140    -3.0330    -0.4250 cg         1 BJS      -0.095000
     25 C68          2.9840    -2.7020    -0.5240 ch         1 BJS      -0.092000
     26 C70          4.3560    -2.3350    -0.6340 ca         1 BJS       0.031000
     27 C72          5.3620    -3.2650    -0.3190 ca         1 BJS      -0.076000
     28 C73          6.7150    -2.8990    -0.4260 ca         1 BJS      -0.106000
     29 C74          7.0680    -1.6070    -0.8490 ca         1 BJS       0.129000
     30 C75          6.0650    -0.6650    -1.1710 ca         1 BJS      -0.074300
     31 C76          4.7090    -1.0400    -1.0580 ca         1 BJS      -0.064000
     32 C85          6.4140     0.7440    -1.6360 c3         1 BJS       0.205100
     33 C89          7.0890     2.9930    -0.8210 c3         1 BJS       0.203100
     34 C91          7.4400     3.7700     0.4400 ca         1 BJS      -0.091300
     35 C93          6.4290     4.4030     1.1900 ca         1 BJS      -0.096500
     36 C94          6.7540     5.1230     2.3530 ca         1 BJS      -0.114500
     37 C95          8.0910     5.2150     2.7740 ca         1 BJS      -0.108000
     38 C96          9.1040     4.5850     2.0310 ca         1 BJS      -0.114500
     39 C97          8.7800     3.8640     0.8680 ca         1 BJS      -0.096500
     40 N13         -3.7850     0.0510    -1.4820 na         1 BJS       0.151800
     41 N14         -2.6010    -0.6440    -1.3000 nd         1 BJS      -0.514800
     42 N28         -7.3770    -4.1470     3.3380 nt         1 BJS      -0.582000
     43 N36         -4.2320     5.0040    -0.5130 n3         1 BJS      -0.718600
     44 N87          6.7110     1.6120    -0.4830 n7         1 BJS      -0.855400
     45 O22         -8.7160    -2.7540     1.1230 o          1 BJS      -0.596100
     46 O26         -6.2850    -5.2160     1.6940 o          1 BJS      -0.590100
     47 O40         -3.6840     7.4360     1.0110 os         1 BJS      -0.444000
     48 Cl3          8.7810    -1.1950    -0.9550 cl         1 BJS      -0.207000
     49 Cl4          1.3310    -5.9610     0.4520 cl         1 BJS      -0.185000
     50 H1          -2.9340     4.1270    -1.9610 h1         1 BJS       0.033700
     51 H2          -4.6560     3.9380    -2.3030 h1         1 BJS       0.033700
     52 H3          -4.6210     1.5160    -2.7240 h1         1 BJS       0.068200
     53 H4          -2.8560     1.5790    -2.5800 h1         1 BJS       0.068200
     54 H5          -3.0780     2.3780    -0.2200 hc         1 BJS       0.062200
     55 H6          -4.8390     2.3380    -0.3600 hc         1 BJS       0.062200
     56 H7          -4.8610    -3.2530     0.9030 h1         1 BJS       0.069700
     57 H8          -5.2120    -3.8680    -0.7320 h1         1 BJS       0.069700
     58 H9          -7.1400    -2.1430    -1.9730 h1         1 BJS       0.070700
     59 H10         -8.2440    -1.3730    -0.8310 h1         1 BJS       0.070700
     60 H11         -6.5800     0.2950    -0.2020 hc         1 BJS       0.067200
     61 H12         -6.6380     0.2420    -1.9650 hc         1 BJS       0.067200
     62 H13         -2.2440     5.2040     0.2780 h1         1 BJS       0.042700
     63 H14         -3.2710     4.0830     1.1820 h1         1 BJS       0.042700
     64 H15         -4.5800     5.9380     2.1500 h1         1 BJS       0.052200
     65 H16         -2.8440     6.1930     2.4540 h1         1 BJS       0.052200
     66 H17         -4.6810     8.4580    -0.4980 h1         1 BJS       0.051700
     67 H18         -5.6690     7.2790     0.3960 h1         1 BJS       0.051700
     68 H19         -3.4060     6.6540    -1.5940 h1         1 BJS       0.034700
     69 H20         -5.6020     7.4890    -2.5660 hc         1 BJS       0.041033
     70 H21         -5.1540     5.8880    -3.1350 hc         1 BJS       0.041033
     71 H22         -6.4080     6.0650    -1.8900 hc         1 BJS       0.041033
     72 H23         -0.2790    -1.5040    -0.8810 ha         1 BJS       0.139000
     73 H24         -1.5170    -6.1180     0.4840 ha         1 BJS       0.134000
     74 H25         -3.2820    -4.5250    -0.0110 ha         1 BJS       0.122000
     75 H26          5.0980    -4.2680     0.0090 ha         1 BJS       0.129000
     76 H27          7.4920    -3.6190    -0.1790 ha         1 BJS       0.133000
     77 H28          3.9290    -0.3210    -1.2980 ha         1 BJS       0.127000
     78 H29          7.2710     0.7000    -2.3220 h1         1 BJS       0.043200
     79 H30          5.5700     1.1520    -2.2100 h1         1 BJS       0.043200
     80 H31          6.2640     3.5010    -1.3400 h1         1 BJS       0.036200
     81 H32          7.9540     2.9990    -1.4990 h1         1 BJS       0.036200
     82 H33          5.3910     4.3330     0.8710 ha         1 BJS       0.117500
     83 H34          5.9680     5.6090     2.9280 ha         1 BJS       0.111500
     84 H35          8.3420     5.7720     3.6740 ha         1 BJS       0.111000
     85 H36         10.1400     4.6540     2.3570 ha         1 BJS       0.111500
     86 H37          9.5710     3.3790     0.2990 ha         1 BJS       0.117500
     87 H38         -7.0750    -4.8310     4.0150 hn         1 BJS       0.325500
     88 H39         -7.9830    -3.3860     3.6110 hn         1 BJS       0.325500
     89 H41          7.4970     1.1920     0.0260 hn         1 BJS       0.420000
@<TRIPOS>BOND
     1     1     3 1   
     2     1    43 1   
     3     1    50 1   
     4     1    51 1   
     5     2     3 1   
     6     2    40 1   
     7     2    52 1   
     8     2    53 1   
     9     3    54 1   
    10     3    55 1   
    11     4     6 1   
    12     4     9 1   
    13     4    10 1   
    14     5     6 1   
    15     5    42 1   
    16     5    46 2   
    17     6    45 2   
    18     7     8 2   
    19     7     9 1   
    20     7    12 1   
    21     8    11 1   
    22     8    40 1   
    23     9    56 1   
    24     9    57 1   
    25    10    11 1   
    26    10    58 1   
    27    10    59 1   
    28    11    60 1   
    29    11    61 1   
    30    12    18 1   
    31    12    41 2   
    32    13    14 1   
    33    13    43 1   
    34    13    62 1   
    35    13    63 1   
    36    14    47 1   
    37    14    64 1   
    38    14    65 1   
    39    15    16 1   
    40    15    47 1   
    41    15    66 1   
    42    15    67 1   
    43    16    17 1   
    44    16    43 1   
    45    16    68 1   
    46    17    69 1   
    47    17    70 1   
    48    17    71 1   
    49    18    19 ar  
    50    18    23 ar  
    51    19    20 ar  
    52    19    72 1   
    53    20    21 ar  
    54    20    24 1   
    55    21    22 ar  
    56    21    49 1   
    57    22    23 ar  
    58    22    73 1   
    59    23    74 1   
    60    24    25 3   
    61    25    26 1   
    62    26    27 ar  
    63    26    31 ar  
    64    27    28 ar  
    65    27    75 1   
    66    28    29 ar  
    67    28    76 1   
    68    29    30 ar  
    69    29    48 1   
    70    30    31 ar  
    71    30    32 1   
    72    31    77 1   
    73    32    44 1   
    74    32    78 1   
    75    32    79 1   
    76    33    34 1   
    77    33    44 1   
    78    33    80 1   
    79    33    81 1   
    80    34    35 ar  
    81    34    39 ar  
    82    35    36 ar  
    83    35    82 1   
    84    36    37 ar  
    85    36    83 1   
    86    37    38 ar  
    87    37    84 1   
    88    38    39 ar  
    89    38    85 1   
    90    39    86 1   
    91    40    41 1   
    92    42    87 1   
    93    42    88 1   
    94    44    89 1   
@<TRIPOS>SUBSTRUCTURE
     1 BJS         1 TEMP              0 ****  ****    0 ROOT
