@<TRIPOS>MOLECULE
BJS
   89    94     1     0     0
SMALL
bcc


@<TRIPOS>ATOM
      1 C34         -3.8550     3.8100    -1.5760 c3         1 BJS       0.170800
      2 C30         -3.8520     1.3690    -2.1200 c3         1 BJS       0.052300
      3 C32         -3.8670     2.3980    -0.9990 c3         1 BJS      -0.103400
      4 N5          -6.4880    -2.3410     0.2960 n          1 BJS      -0.449800
      5 C24         -6.3590    -3.2720     2.5670 c          1 BJS       0.603100
      6 C20         -6.9410    -2.2770     1.5560 c          1 BJS       0.592100
      7 C1          -4.3760    -1.9190    -0.7540 cc         1 BJS      -0.292600
      8 C2          -4.8690    -0.6940    -1.1340 cd         1 BJS      -0.085600
      9 C6          -5.2320    -2.9620    -0.1040 c6         1 BJS       0.190300
     10 C4          -7.1110    -1.5210    -0.7350 c6         1 BJS       0.094000
     11 C3          -6.2860    -0.2650    -1.0100 c6         1 BJS      -0.036100
     12 C15         -3.0010    -1.8620    -1.0700 cc         1 BJS       0.387800
     13 C38         -3.3010     4.9040     0.4910 c6         1 BJS       0.124800
     14 C39         -3.7600     5.9180     1.5170 c6         1 BJS       0.128400
     15 C41         -4.8410     7.1310    -0.1270 c6         1 BJS       0.130400
     16 C42         -4.4330     6.1410    -1.2130 c6         1 BJS       0.146500
     17 C49         -5.5110     6.1510    -2.2890 c3         1 BJS      -0.091100
     18 C51         -1.9620    -2.8760    -0.8880 ca         1 BJS      -0.114500
     19 C53         -0.6170    -2.5140    -0.8910 ca         1 BJS      -0.075000
     20 C54          0.3940    -3.4610    -0.7290 ca         1 BJS       0.032000
     21 C55          0.0340    -4.8020    -0.5510 ca         1 BJS       0.046400
     22 C56         -1.2960    -5.1800    -0.5500 ca         1 BJS      -0.126000
     23 C57         -2.2830    -4.2240    -0.7230 ca         1 BJS      -0.102000
     24 C66          1.7560    -3.0660    -0.7460 cg         1 BJS      -0.095000
     25 C68          2.9180    -2.7400    -0.7720 ch         1 BJS      -0.092000
     26 C70          4.2950    -2.3910    -0.7990 ca         1 BJS       0.031000
     27 C72          5.2680    -3.3590    -0.5370 ca         1 BJS      -0.094000
     28 C73          6.6070    -3.0190    -0.5630 ca         1 BJS      -0.124000
     29 C74          6.9760    -1.7130    -0.8560 ca         1 BJS       0.037400
     30 C75          6.0350    -0.7240    -1.1360 ca         1 BJS      -0.074300
     31 C76          4.6950    -1.0860    -1.0910 ca         1 BJS      -0.082000
     32 C85          6.4210     0.6950    -1.4480 c3         1 BJS       0.205100
     33 C89          7.0280     2.8210    -0.4980 c3         1 BJS       0.203100
     34 C91          7.2440     3.5980     0.7740 ca         1 BJS      -0.091300
     35 C93          6.3560     3.4760     1.8430 ca         1 BJS      -0.114500
     36 C94          6.5420     4.2110     3.0040 ca         1 BJS      -0.132500
     37 C95          7.6200     5.0820     3.1180 ca         1 BJS      -0.126000
     38 C96          8.5110     5.2070     2.0620 ca         1 BJS      -0.132500
     39 C97          8.3240     4.4660     0.9010 ca         1 BJS      -0.114500
     40 N13         -3.8330     0.0070    -1.6310 na         1 BJS       0.130400
     41 N14         -2.6990    -0.6810    -1.5930 nd         1 BJS      -0.514800
     42 N28         -6.0250    -2.7170     3.7290 nt         1 BJS      -0.649000
     43 N36         -4.2470     4.8220    -0.6110 n3         1 BJS      -0.718600
     44 N87          6.6590     1.4450    -0.2260 n7         1 BJS      -0.800200
     45 O22         -7.8440    -1.5440     1.9270 o          1 BJS      -0.596100
     46 O26         -6.2910    -4.4630     2.3070 o          1 BJS      -0.590100
     47 O40         -3.9240     7.1920     0.9390 os         1 BJS      -0.397600
     48 CL3          8.6660    -1.3240    -0.8640 cl         1 BJS      -0.115400
     49 CL4          1.2600    -5.9960    -0.3390 cl         1 BJS      -0.093400
     50 H1          -2.8620     4.0230    -2.0090 h1         1 BJS       0.033700
     51 H2          -4.5640     3.8330    -2.4050 h1         1 BJS       0.033700
     52 H3          -4.7260     1.4930    -2.7630 h1         1 BJS       0.068200
     53 H4          -2.9710     1.4900    -2.7510 h1         1 BJS       0.068200
     54 H5          -3.0090     2.2240    -0.3460 hc         1 BJS       0.062200
     55 H6          -4.7670     2.2770    -0.3900 hc         1 BJS       0.062200
     56 H7          -4.7200    -3.3830     0.7570 h1         1 BJS       0.069700
     57 H8          -5.4450    -3.7900    -0.7870 h1         1 BJS       0.069700
     58 H9          -7.1720    -2.1240    -1.6430 h1         1 BJS       0.070700
     59 H10         -8.1230    -1.2650    -0.4370 h1         1 BJS       0.070700
     60 H11         -6.4110     0.4610    -0.2010 hc         1 BJS       0.067200
     61 H12         -6.6470     0.2090    -1.9250 hc         1 BJS       0.067200
     62 H13         -2.2890     5.1690     0.1380 h1         1 BJS       0.042700
     63 H14         -3.2230     3.9360     0.9890 h1         1 BJS       0.042700
     64 H15         -4.7010     5.5760     1.9710 h1         1 BJS       0.052200
     65 H16         -3.0180     6.0090     2.3110 h1         1 BJS       0.052200
     66 H17         -4.9050     8.1330    -0.5560 h1         1 BJS       0.051700
     67 H18         -5.8420     6.8580     0.2420 h1         1 BJS       0.051700
     68 H19         -3.4870     6.4990    -1.6600 h1         1 BJS       0.034700
     69 H20         -5.7560     7.1790    -2.5600 hc         1 BJS       0.041033
     70 H21         -5.2000     5.6530    -3.2060 hc         1 BJS       0.041033
     71 H22         -6.4220     5.6690    -1.9310 hc         1 BJS       0.041033
     72 H23         -0.3380    -1.4770    -1.0190 ha         1 BJS       0.157000
     73 H24         -1.5660    -6.2190    -0.4240 ha         1 BJS       0.152000
     74 H25         -3.3120    -4.5570    -0.7490 ha         1 BJS       0.140000
     75 H26          4.9750    -4.3760    -0.3130 ha         1 BJS       0.147000
     76 H27          7.3610    -3.7660    -0.3570 ha         1 BJS       0.151000
     77 H28          3.9430    -0.3350    -1.2970 ha         1 BJS       0.145000
     78 H29          7.2800     0.7060    -2.1320 h1         1 BJS       0.043200
     79 H30          5.5970     1.1710    -1.9840 h1         1 BJS       0.043200
     80 H31          6.2120     3.2800    -1.0650 h1         1 BJS       0.036200
     81 H32          7.9220     2.9070    -1.1340 h1         1 BJS       0.036200
     82 H33          5.5190     2.7950     1.7640 ha         1 BJS       0.135500
     83 H34          5.8440     4.1040     3.8250 ha         1 BJS       0.129500
     84 H35          7.7650     5.6540     4.0250 ha         1 BJS       0.129000
     85 H36          9.3590     5.8760     2.1420 ha         1 BJS       0.129500
     86 H37          9.0300     4.5650     0.0840 ha         1 BJS       0.135500
     87 H38         -5.7130    -3.2900     4.4970 hn         1 BJS       0.325500
     88 H39         -6.1580    -1.7350     3.9050 hn         1 BJS       0.325500
     89 H41          7.4100     1.0070     0.2960 hn         1 BJS       0.364800
@<TRIPOS>BOND
     1     1     3 1   
     2     1    43 1   
     3     1    50 1   
     4     1    51 1   
     5     2     3 1   
     6     2    40 1   
     7     2    52 1   
     8     2    53 1   
     9     3    54 1   
    10     3    55 1   
    11     4     6 1   
    12     4     9 1   
    13     4    10 1   
    14     5     6 1   
    15     5    42 1   
    16     5    46 2   
    17     6    45 2   
    18     7     8 2   
    19     7     9 1   
    20     7    12 1   
    21     8    11 1   
    22     8    40 1   
    23     9    56 1   
    24     9    57 1   
    25    10    11 1   
    26    10    58 1   
    27    10    59 1   
    28    11    60 1   
    29    11    61 1   
    30    12    18 1   
    31    12    41 2   
    32    13    14 1   
    33    13    43 1   
    34    13    62 1   
    35    13    63 1   
    36    14    47 1   
    37    14    64 1   
    38    14    65 1   
    39    15    16 1   
    40    15    47 1   
    41    15    66 1   
    42    15    67 1   
    43    16    17 1   
    44    16    43 1   
    45    16    68 1   
    46    17    69 1   
    47    17    70 1   
    48    17    71 1   
    49    18    19 ar  
    50    18    23 ar  
    51    19    20 ar  
    52    19    72 1   
    53    20    21 ar  
    54    20    24 1   
    55    21    22 ar  
    56    21    49 1   
    57    22    23 ar  
    58    22    73 1   
    59    23    74 1   
    60    24    25 3   
    61    25    26 1   
    62    26    27 ar  
    63    26    31 ar  
    64    27    28 ar  
    65    27    75 1   
    66    28    29 ar  
    67    28    76 1   
    68    29    30 ar  
    69    29    48 1   
    70    30    31 ar  
    71    30    32 1   
    72    31    77 1   
    73    32    44 1   
    74    32    78 1   
    75    32    79 1   
    76    33    34 1   
    77    33    44 1   
    78    33    80 1   
    79    33    81 1   
    80    34    35 ar  
    81    34    39 ar  
    82    35    36 ar  
    83    35    82 1   
    84    36    37 ar  
    85    36    83 1   
    86    37    38 ar  
    87    37    84 1   
    88    38    39 ar  
    89    38    85 1   
    90    39    86 1   
    91    40    41 1   
    92    42    87 1   
    93    42    88 1   
    94    44    89 1   
@<TRIPOS>SUBSTRUCTURE
     1 BJS         1 TEMP              0 ****  ****    0 ROOT
