@<TRIPOS>MOLECULE
BJV
   90    95     1     0     0
SMALL
abcg2


@<TRIPOS>ATOM
      1 C2          -1.6880     6.6220    -1.5350 c6         1 BJV       0.152600
      2 C6          -0.4670     7.1420     0.3690 c6         1 BJV       0.152600
      3 C5          -1.3700     6.2680     1.2170 c6         1 BJV       0.126300
      4 C3          -2.6130     5.7320    -0.7280 c6         1 BJV       0.126300
      5 C15         -2.9810     2.9550     0.5040 c3         1 BJV      -0.097400
      6 C22         -3.2750    -1.1930     0.0330 cc         1 BJV       0.324500
      7 C17         -3.6880     1.9840     1.4390 c3         1 BJV       0.086600
      8 C23         -4.6850    -1.1460    -0.0400 cc         1 BJV      -0.197300
      9 C24         -5.0190     0.0800     0.4810 cd         1 BJV      -0.130300
     10 C30         -6.4010     0.6080     0.6070 c6         1 BJV      -0.007100
     11 C31         -7.2980    -0.2410    -0.2870 c6         1 BJV       0.203800
     12 C33         -5.7130    -2.1250    -0.5040 c6         1 BJV       0.286100
     13 C39         -2.3370    -2.2420    -0.3730 ca         1 BJV      -0.111500
     14 C45         -8.6630    -2.7930    -1.9430 c3         1 BJV      -0.384100
     15 C49         -0.9900    -2.1340    -0.0340 ca         1 BJV      -0.060000
     16 C50         -0.0580    -3.1020    -0.4060 ca         1 BJV       0.043000
     17 C51         -0.5050    -4.2130    -1.1300 ca         1 BJV       0.137000
     18 C52         -1.8360    -4.3360    -1.4800 ca         1 BJV      -0.109000
     19 C53         -2.7430    -3.3550    -1.1100 ca         1 BJV      -0.088000
     20 C62          1.3080    -2.9380    -0.0590 cg         1 BJV      -0.117000
     21 C64          2.4680    -2.7620     0.2280 ch         1 BJV      -0.073000
     22 C66          3.8300    -2.5420     0.5630 ca         1 BJV      -0.016000
     23 C68          4.7650    -3.5730     0.4820 ca         1 BJV      -0.041000
     24 C69          6.0940    -3.3460     0.7970 ca         1 BJV      -0.205000
     25 C70          6.5120    -2.0780     1.1970 ca         1 BJV       0.156100
     26 C71          5.5850    -1.0250     1.2940 ca         1 BJV      -0.117300
     27 C72          4.2650    -1.2750     0.9730 ca         1 BJV      -0.034000
     28 C81          8.7680    -2.7860     1.4440 c3         1 BJV       0.148900
     29 C83          6.0210     0.3560     1.7000 c3         1 BJV       0.218100
     30 C87          7.0200     2.4140     0.9320 c3         1 BJV       0.204100
     31 C89          7.5670     3.1550    -0.2600 ca         1 BJV      -0.089300
     32 C91          8.7260     3.9170    -0.1550 ca         1 BJV      -0.097000
     33 C92          9.2140     4.6260    -1.2470 ca         1 BJV      -0.115500
     34 C93          8.5480     4.5750    -2.4630 ca         1 BJV      -0.109000
     35 C94          7.3930     3.8100    -2.5800 ca         1 BJV      -0.115500
     36 C95          6.9080     3.1050    -1.4880 ca         1 BJV      -0.097000
     37 N19         -3.8690     0.6780     0.8410 na         1 BJV       0.151800
     38 N21         -2.8120    -0.0740     0.5750 nd         1 BJV      -0.514800
     39 N32         -7.0240    -1.6600    -0.0420 n3         1 BJV      -0.730500
     40 N4          -1.9060     5.1830     0.4150 n3         1 BJV      -0.714600
     41 N85          6.6340     1.0600     0.5840 n7         1 BJV      -0.857400
     42 O1          -1.1480     7.6630    -0.7510 os         1 BJV      -0.449000
     43 O43         -9.4280    -2.1330     0.4790 o          1 BJV      -0.528000
     44 O47         -7.8060    -4.0250     0.2110 o          1 BJV      -0.528000
     45 O79          7.7820    -1.7720     1.5030 os         1 BJV      -0.348100
     46 S41         -8.2860    -2.7170    -0.2060 s6         1 BJV       1.203100
     47 CL6          0.6190    -5.4350    -1.6000 cl         1 BJV      -0.187000
     48 H1          -0.8820     6.0080    -1.9640 h1         1 BJV       0.052450
     49 H2          -2.2360     7.0820    -2.3590 h1         1 BJV       0.052450
     50 H3          -0.1050     7.9890     0.9540 h1         1 BJV       0.052450
     51 H4           0.4060     6.5550     0.0480 h1         1 BJV       0.052450
     52 H5          -0.7850     5.8550     2.0430 h1         1 BJV       0.040450
     53 H6          -2.1690     6.8860     1.6620 h1         1 BJV       0.040450
     54 H7          -3.5030     6.3060    -0.4140 h1         1 BJV       0.040450
     55 H8          -2.9650     4.9260    -1.3750 h1         1 BJV       0.040450
     56 H9          -3.5890     3.0890    -0.3940 hc         1 BJV       0.066700
     57 H10         -2.0260     2.5290     0.1910 hc         1 BJV       0.066700
     58 H11         -3.6840     4.7490     1.4900 h1         1 BJV       0.031200
     59 H12         -2.1920     4.0820     2.1380 h1         1 BJV       0.031200
     60 H13         -3.1220     1.8590     2.3640 h1         1 BJV       0.062200
     61 H14         -4.6740     2.3600     1.7160 h1         1 BJV       0.062200
     62 H15         -6.7460     0.5580     1.6430 hc         1 BJV       0.066200
     63 H16         -6.4710     1.6510     0.2920 hc         1 BJV       0.066200
     64 H17         -8.3390    -0.0240    -0.0630 h1         1 BJV       0.057700
     65 H18         -7.1210     0.0090    -1.3390 h1         1 BJV       0.057700
     66 H19         -5.6880    -2.2260    -1.5990 h1         1 BJV       0.061200
     67 H20         -5.5220    -3.1090    -0.0780 h1         1 BJV       0.061200
     68 H21         -7.7950    -3.1510    -2.4930 h1         1 BJV       0.100700
     69 H22         -9.4920    -3.4860    -2.0750 h1         1 BJV       0.100700
     70 H23         -8.9500    -1.8050    -2.2980 h1         1 BJV       0.100700
     71 H24         -0.6460    -1.2780     0.5300 ha         1 BJV       0.141000
     72 H25         -2.1720    -5.1920    -2.0480 ha         1 BJV       0.130000
     73 H26         -3.7690    -3.4730    -1.4250 ha         1 BJV       0.114000
     74 H27          4.4540    -4.5610     0.1690 ha         1 BJV       0.122000
     75 H28          6.7930    -4.1680     0.7240 ha         1 BJV       0.120000
     76 H29          3.5470    -0.4680     1.0380 ha         1 BJV       0.124000
     77 H30          9.7070    -2.3170     1.7270 h1         1 BJV       0.043033
     78 H31          8.5550    -3.6000     2.1410 h1         1 BJV       0.043033
     79 H32          8.8680    -3.1970     0.4370 h1         1 BJV       0.043033
     80 H33          5.1380     0.9230     2.0060 h1         1 BJV       0.037700
     81 H34          6.6730     0.3070     2.5850 h1         1 BJV       0.037700
     82 H35          7.7490     2.4600     1.7550 h1         1 BJV       0.034200
     83 H36          6.1250     2.9320     1.2950 h1         1 BJV       0.034200
     84 H37          9.2550     3.9580     0.7900 ha         1 BJV       0.118000
     85 H38         10.1170     5.2140    -1.1470 ha         1 BJV       0.111000
     86 H39          8.9250     5.1270    -3.3150 ha         1 BJV       0.110000
     87 H40          6.8690     3.7610    -3.5270 ha         1 BJV       0.111000
     88 H41          6.0120     2.5050    -1.5860 ha         1 BJV       0.118000
     89 H43          7.4600     0.5550     0.2840 hn         1 BJV       0.420000
     90 C13         -2.7250     4.2840     1.2040 c3         1 BJV       0.171800
@<TRIPOS>BOND
     1     1     4 1   
     2     1    42 1   
     3     1    48 1   
     4     1    49 1   
     5     2     3 1   
     6     2    42 1   
     7     2    50 1   
     8     2    51 1   
     9     3    40 1   
    10     3    52 1   
    11     3    53 1   
    12     4    40 1   
    13     4    54 1   
    14     4    55 1   
    15     5     7 1   
    16     5    56 1   
    17     5    57 1   
    18     5    90 1   
    19     6     8 1   
    20     6    13 1   
    21     6    38 2   
    22     7    37 1   
    23     7    60 1   
    24     7    61 1   
    25     8     9 2   
    26     8    12 1   
    27     9    10 1   
    28     9    37 1   
    29    10    11 1   
    30    10    62 1   
    31    10    63 1   
    32    11    39 1   
    33    11    64 1   
    34    11    65 1   
    35    12    39 1   
    36    12    66 1   
    37    12    67 1   
    38    13    15 ar  
    39    13    19 ar  
    40    14    46 1   
    41    14    68 1   
    42    14    69 1   
    43    14    70 1   
    44    15    16 ar  
    45    15    71 1   
    46    16    17 ar  
    47    16    20 1   
    48    17    18 ar  
    49    17    47 1   
    50    18    19 ar  
    51    18    72 1   
    52    19    73 1   
    53    20    21 3   
    54    21    22 1   
    55    22    23 ar  
    56    22    27 ar  
    57    23    24 ar  
    58    23    74 1   
    59    24    25 ar  
    60    24    75 1   
    61    25    26 ar  
    62    25    45 1   
    63    26    27 ar  
    64    26    29 1   
    65    27    76 1   
    66    28    45 1   
    67    28    77 1   
    68    28    78 1   
    69    28    79 1   
    70    29    41 1   
    71    29    80 1   
    72    29    81 1   
    73    30    31 1   
    74    30    41 1   
    75    30    82 1   
    76    30    83 1   
    77    31    32 ar  
    78    31    36 ar  
    79    32    33 ar  
    80    32    84 1   
    81    33    34 ar  
    82    33    85 1   
    83    34    35 ar  
    84    34    86 1   
    85    35    36 ar  
    86    35    87 1   
    87    36    88 1   
    88    37    38 1   
    89    39    46 1   
    90    40    90 1   
    91    41    89 1   
    92    43    46 2   
    93    44    46 2   
    94    58    90 1   
    95    59    90 1   
@<TRIPOS>SUBSTRUCTURE
     1 BJV         1 TEMP              0 ****  ****    0 ROOT
