@<TRIPOS>MOLECULE
BJV
   90    95     1     0     0
SMALL
No Charge or Current Charge


@<TRIPOS>ATOM
      1 C2          -4.1010     7.1460    -2.1650 c6         1 BJV       0.152600
      2 C6          -2.5110     8.2890    -0.7640 c6         1 BJV       0.152600
      3 C5          -2.6550     7.1950     0.3340 c6         1 BJV       0.126300
      4 C3          -4.2760     6.0230    -1.0990 c6         1 BJV       0.126300
      5 C15         -3.3460     3.3900     0.2470 c3         1 BJV      -0.097400
      6 C22         -2.9470    -0.9870     0.1170 cc         1 BJV       0.324500
      7 C17         -3.3020     2.3200     1.3580 c3         1 BJV       0.086600
      8 C23         -4.3660    -0.9210     0.1530 cc         1 BJV      -0.197300
      9 C24         -4.6990     0.3090     0.6110 cd         1 BJV      -0.130300
     10 C30         -6.1180     0.7610     0.8450 c6         1 BJV      -0.007100
     11 C31         -7.0990    -0.2300     0.1670 c6         1 BJV       0.203800
     12 C33         -5.3820    -1.9900    -0.1740 c6         1 BJV       0.286100
     13 C39         -2.0800    -2.0950    -0.3590 ca         1 BJV      -0.111500
     14 C45         -8.4260    -2.5380    -1.5870 c3         1 BJV      -0.384100
     15 C49         -0.6880    -2.0500    -0.0880 ca         1 BJV      -0.060000
     16 C50          0.1860    -3.0610    -0.5300 ca         1 BJV       0.043000
     17 C51         -0.3220    -4.1420    -1.2780 ca         1 BJV       0.137000
     18 C52         -1.6890    -4.1900    -1.5820 ca         1 BJV      -0.109000
     19 C53         -2.5570    -3.1790    -1.1370 ca         1 BJV      -0.088000
     20 C62          1.5840    -2.9680    -0.2090 cg         1 BJV      -0.117000
     21 C64          2.7730    -2.9020     0.0560 ch         1 BJV      -0.073000
     22 C66          4.1640    -2.8430     0.3570 ca         1 BJV      -0.016000
     23 C68          5.0060    -3.9130     0.0090 ca         1 BJV      -0.041000
     24 C69          6.3790    -3.8560     0.3030 ca         1 BJV      -0.205000
     25 C70          6.9230    -2.7230     0.9500 ca         1 BJV       0.156100
     26 C71          6.0760    -1.6480     1.3030 ca         1 BJV      -0.117300
     27 C72          4.7010    -1.7150     1.0010 ca         1 BJV      -0.034000
     28 C81          9.2070    -3.6740     0.9230 c3         1 BJV       0.148900
     29 C83          6.6240    -0.4130     2.0050 c3         1 BJV       0.218100
     30 C87          7.6940     1.7880     1.5830 c3         1 BJV       0.204100
     31 C89          8.2170     2.6890     0.4730 ca         1 BJV      -0.089300
     32 C91          9.5700     2.6250     0.0810 ca         1 BJV      -0.097000
     33 C92         10.0520     3.4610    -0.9420 ca         1 BJV      -0.115500
     34 C93          9.1860     4.3650    -1.5800 ca         1 BJV      -0.109000
     35 C94          7.8360     4.4330    -1.1950 ca         1 BJV      -0.115500
     36 C95          7.3540     3.5980    -0.1720 ca         1 BJV      -0.097000
     37 N19         -3.4890     0.9530     0.8450 na         1 BJV       0.151800
     38 N21         -2.4030     0.1500     0.5340 nd         1 BJV      -0.514800
     39 N32         -6.7090    -1.6490     0.4130 n3         1 BJV      -0.730500
     40 N4          -3.0540     5.8720    -0.2420 n3         1 BJV      -0.714600
     41 N85          7.1010     0.5660     1.0170 n7         1 BJV      -0.857400
     42 O1          -3.7350     8.3940    -1.5300 os         1 BJV      -0.449000
     43 O43         -9.0570    -2.4790     1.0030 o          1 BJV      -0.528000
     44 O47         -7.3110    -4.1290     0.2120 o          1 BJV      -0.528000
     45 O79          8.2700    -2.6310     1.2480 os         1 BJV      -0.348100
     46 S41         -7.9410    -2.8100     0.1110 s6         1 BJV       1.203100
     47 Cl6          0.7250    -5.4400    -1.8630 cl         1 BJV      -0.187000
     48 H1          -3.3200     6.8620    -2.8850 h1         1 BJV       0.052450
     49 H2          -5.0410     7.2850    -2.7190 h1         1 BJV       0.052450
     50 H3          -2.2930     9.2610    -0.2990 h1         1 BJV       0.052450
     51 H4          -1.6800     8.0380    -1.4390 h1         1 BJV       0.052450
     52 H5          -1.6980     7.1060     0.8680 h1         1 BJV       0.040450
     53 H6          -3.4020     7.5310     1.0690 h1         1 BJV       0.040450
     54 H7          -5.1510     6.2610    -0.4770 h1         1 BJV       0.040450
     55 H8          -4.5000     5.0870    -1.6280 h1         1 BJV       0.040450
     56 H9          -4.3030     3.3110    -0.2800 hc         1 BJV       0.066700
     57 H10         -2.5530     3.1840    -0.4820 hc         1 BJV       0.066700
     58 H11         -4.0060     5.0480     1.4700 h1         1 BJV       0.031200
     59 H12         -2.2550     4.8270     1.4110 h1         1 BJV       0.031200
     60 H13         -2.3380     2.3710     1.8770 h1         1 BJV       0.062200
     61 H14         -4.0900     2.5240     2.0940 h1         1 BJV       0.062200
     62 H15         -6.3250     0.7940     1.9230 hc         1 BJV       0.066200
     63 H16         -6.2860     1.7750     0.4590 hc         1 BJV       0.066200
     64 H17         -8.1100    -0.0240     0.5500 h1         1 BJV       0.057700
     65 H18         -7.1180    -0.0260    -0.9140 h1         1 BJV       0.057700
     66 H19         -5.4680    -2.0890    -1.2660 h1         1 BJV       0.061200
     67 H20         -5.0360    -2.9560     0.2240 h1         1 BJV       0.061200
     68 H21         -7.5390    -2.6600    -2.2160 h1         1 BJV       0.100700
     69 H22         -9.1860    -3.2880    -1.8300 h1         1 BJV       0.100700
     70 H23         -8.8370    -1.5270    -1.6650 h1         1 BJV       0.100700
     71 H24         -0.2700    -1.2280     0.4900 ha         1 BJV       0.141000
     72 H25         -2.0780    -5.0130    -2.1760 ha         1 BJV       0.130000
     73 H26         -3.5920    -3.2510    -1.4430 ha         1 BJV       0.114000
     74 H27          4.5970    -4.7900    -0.4900 ha         1 BJV       0.122000
     75 H28          7.0030    -4.6980     0.0190 ha         1 BJV       0.120000
     76 H29          4.0500    -0.8850     1.2670 ha         1 BJV       0.124000
     77 H30         10.2160    -3.3920     1.2470 h1         1 BJV       0.043033
     78 H31          8.9380    -4.6110     1.4260 h1         1 BJV       0.043033
     79 H32          9.2350    -3.8500    -0.1600 h1         1 BJV       0.043033
     80 H33          5.8330     0.0290     2.6270 h1         1 BJV       0.037700
     81 H34          7.4370    -0.7070     2.6840 h1         1 BJV       0.037700
     82 H35          8.5230     1.5340     2.2590 h1         1 BJV       0.034200
     83 H36          6.9480     2.3380     2.1730 h1         1 BJV       0.034200
     84 H37         10.2470     1.9280     0.5690 ha         1 BJV       0.118000
     85 H38         11.0970     3.4070    -1.2400 ha         1 BJV       0.111000
     86 H39          9.5600     5.0110    -2.3720 ha         1 BJV       0.110000
     87 H40          7.1640     5.1320    -1.6880 ha         1 BJV       0.111000
     88 H41          6.3070     3.6530     0.1200 ha         1 BJV       0.118000
     89 H43          7.8240     0.1020     0.4560 hn         1 BJV       0.420000
     90 C13         -3.1670     4.8200     0.7980 c3         1 BJV       0.171800
@<TRIPOS>BOND
     1     1     4 1   
     2     1    42 1   
     3     1    48 1   
     4     1    49 1   
     5     2     3 1   
     6     2    42 1   
     7     2    50 1   
     8     2    51 1   
     9     3    40 1   
    10     3    52 1   
    11     3    53 1   
    12     4    40 1   
    13     4    54 1   
    14     4    55 1   
    15     5     7 1   
    16     5    56 1   
    17     5    57 1   
    18     5    90 1   
    19     6     8 1   
    20     6    13 1   
    21     6    38 2   
    22     7    37 1   
    23     7    60 1   
    24     7    61 1   
    25     8     9 2   
    26     8    12 1   
    27     9    10 1   
    28     9    37 1   
    29    10    11 1   
    30    10    62 1   
    31    10    63 1   
    32    11    39 1   
    33    11    64 1   
    34    11    65 1   
    35    12    39 1   
    36    12    66 1   
    37    12    67 1   
    38    13    15 ar  
    39    13    19 ar  
    40    14    46 1   
    41    14    68 1   
    42    14    69 1   
    43    14    70 1   
    44    15    16 ar  
    45    15    71 1   
    46    16    17 ar  
    47    16    20 1   
    48    17    18 ar  
    49    17    47 1   
    50    18    19 ar  
    51    18    72 1   
    52    19    73 1   
    53    20    21 3   
    54    21    22 1   
    55    22    23 ar  
    56    22    27 ar  
    57    23    24 ar  
    58    23    74 1   
    59    24    25 ar  
    60    24    75 1   
    61    25    26 ar  
    62    25    45 1   
    63    26    27 ar  
    64    26    29 1   
    65    27    76 1   
    66    28    45 1   
    67    28    77 1   
    68    28    78 1   
    69    28    79 1   
    70    29    41 1   
    71    29    80 1   
    72    29    81 1   
    73    30    31 1   
    74    30    41 1   
    75    30    82 1   
    76    30    83 1   
    77    31    32 ar  
    78    31    36 ar  
    79    32    33 ar  
    80    32    84 1   
    81    33    34 ar  
    82    33    85 1   
    83    34    35 ar  
    84    34    86 1   
    85    35    36 ar  
    86    35    87 1   
    87    36    88 1   
    88    37    38 1   
    89    39    46 1   
    90    40    90 1   
    91    41    89 1   
    92    43    46 2   
    93    44    46 2   
    94    58    90 1   
    95    59    90 1   
@<TRIPOS>SUBSTRUCTURE
     1 BJV         1 TEMP              0 ****  ****    0 ROOT
