@<TRIPOS>MOLECULE
BJW
  141   148     1     0     0
SMALL
abcg2


@<TRIPOS>ATOM
      1 C1         -16.9740    31.8520     1.6140 ca         1 BJW       0.127500
      2 C2         -18.2180    31.4800     1.1290 ca         1 BJW      -0.091600
      3 C3         -19.1860    32.4980     1.0500 ca         1 BJW       0.437900
      4 C4         -17.0460    29.7250     1.1110 cc         1 BJW       0.444700
      5 N1         -18.8340    33.7290     1.4410 nb         1 BJW      -0.327000
      6 N2         -16.6090    33.0710     2.0050 nb         1 BJW      -0.195000
      7 C5          -3.4840    26.9320     1.1310 ca         1 BJW      -0.121000
      8 C6          -2.6850    27.4360     2.1390 ca         1 BJW      -0.107000
      9 C7          -2.1490    26.6000     3.1320 ca         1 BJW      -0.152000
     10 C8          -2.4030    25.2420     3.1340 ca         1 BJW      -0.067000
     11 C9          -3.2090    24.7010     2.1250 ca         1 BJW      -0.091800
     12 C10         -3.7400    25.5610     1.1370 ca         1 BJW      -0.048200
     13 N3          -4.4790    24.7930     0.2860 na         1 BJW      -0.214700
     14 C11         -4.4340    23.4910     0.6970 cc         1 BJW      -0.116100
     15 C12         -3.6670    23.3780     1.8210 cd         1 BJW      -0.162400
     16 C13         -3.4230    22.1420     2.6170 c3         1 BJW      -0.001200
     17 C14         -4.1510    22.1720     3.9710 c3         1 BJW       0.018700
     18 C15         -5.6510    22.3740     3.7400 c          1 BJW       0.582100
     19 O1          -6.3240    21.4600     3.2820 o          1 BJW      -0.613100
     20 N4          -6.1180    23.5840     4.0570 ns         1 BJW      -0.484900
     21 C16         -7.4910    24.0490     3.8730 c3         1 BJW       0.127700
     22 C17         -8.4750    23.3020     4.7670 c3         1 BJW      -0.113100
     23 C18         -7.9180    24.0470     2.4090 c3         1 BJW      -0.113100
     24 C19         -3.6100    20.8660     5.9850 c          1 BJW       0.602100
     25 O2          -3.3440    21.8320     6.6790 o          1 BJW      -0.613100
     26 C20         -3.6430    19.4510     6.5660 c3         1 BJW       0.050700
     27 N6          -2.4850    19.2130     7.3880 ns         1 BJW      -0.483900
     28 C21         -1.2450    19.2730     6.8710 c          1 BJW       0.638100
     29 O3          -1.0010    19.5300     5.7090 o          1 BJW      -0.548000
     30 O4          -0.3170    19.0060     7.7940 os         1 BJW      -0.461100
     31 C22          1.0500    19.0410     7.3670 c3         1 BJW       0.230900
     32 C23          1.8850    18.6240     8.5390 ca         1 BJW      -0.090300
     33 C24          2.2890    19.5580     9.4880 ca         1 BJW      -0.084000
     34 C25          3.0410    19.1670    10.5870 ca         1 BJW      -0.119500
     35 C26          3.3940    17.8330    10.7480 ca         1 BJW      -0.107000
     36 C27          2.9940    16.8940     9.8060 ca         1 BJW      -0.119500
     37 C28          2.2410    17.2890     8.7090 ca         1 BJW      -0.084000
     38 C29         -4.9040    19.2770     7.4140 c3         1 BJW      -0.086400
     39 C30         -6.2020    19.4740     6.6420 c3         1 BJW      -0.079400
     40 C31         -7.4240    19.1980     7.5070 c3         1 BJW      -0.076400
     41 C32         -8.7270    19.3930     6.7470 c3         1 BJW       0.183800
     42 N7          -9.8550    19.1370     7.6230 n7         1 BJW      -0.892400
     43 C33        -11.1590    19.4630     7.1980 c5         1 BJW       0.614200
     44 C34        -12.2040    18.8810     8.1520 c3         1 BJW      -0.088400
     45 C35        -12.3020    17.3580     8.1500 c3         1 BJW      -0.047400
     46 C36        -13.4300    16.8640     9.0440 c3         1 BJW      -0.208400
     47 C37        -14.8630    17.1760     8.5600 c          1 BJW       0.715000
     48 O5         -15.0240    17.4240     7.3470 o          1 BJW      -0.743000
     49 O6         -15.7560    17.1150     9.4290 o          1 BJW      -0.743000
     50 O7         -11.3940    19.0790     5.8630 os         1 BJW      -0.465000
     51 S1         -11.3550    21.3220     7.1500 ss         1 BJW      -0.567000
     52 C38        -12.4330    21.2470     5.6920 c5         1 BJW       0.307300
     53 O8         -11.9290    21.9700     4.6030 os         1 BJW      -0.373000
     54 C39        -12.4730    19.7550     5.2790 c5         1 BJW       0.087300
     55 C40        -12.2430    19.8500     3.7650 c5         1 BJW       0.145300
     56 O9         -11.6350    18.7460     3.1700 oh         1 BJW      -0.701000
     57 C41        -11.3370    21.0740     3.6820 c5         1 BJW       0.151300
     58 C42        -11.1860    21.7270     2.3300 c3         1 BJW       0.244600
     59 O10        -12.4470    22.0400     1.7840 os         1 BJW      -0.613400
     60 P1         -12.6310    23.1660     0.5970 p5         1 BJW       1.487800
     61 O11        -13.6720    22.6310    -0.3320 o          1 BJW      -0.859500
     62 O12        -11.2960    23.6230     0.0990 o          1 BJW      -0.859500
     63 O13        -13.3910    24.3640     1.4390 os         1 BJW      -0.715800
     64 P2         -12.8150    25.4700     2.5060 p5         1 BJW       1.471800
     65 O14        -13.9600    25.7930     3.4150 o          1 BJW      -0.851500
     66 O15        -11.4730    25.0850     3.0390 o          1 BJW      -0.851500
     67 O16        -12.5240    26.7420     1.5030 os         1 BJW      -0.595400
     68 C44        -13.1810    29.0280     1.5630 c5         1 BJW       0.104300
     69 O17        -14.1140    29.9620     1.0070 os         1 BJW      -0.473000
     70 C45        -13.2310    29.2350     3.0810 c5         1 BJW       0.109300
     71 O18        -12.3830    30.2720     3.5060 oh         1 BJW      -0.730000
     72 C46        -14.6740    29.7000     3.2570 c5         1 BJW       0.133300
     73 O19        -14.9700    30.4410     4.3980 oh         1 BJW      -0.708000
     74 C47        -14.8560    30.5750     2.0200 c5         1 BJW       0.306300
     75 N8         -16.2280    30.7090     1.5980 na         1 BJW      -0.268300
     76 N9         -18.2400    30.1450     0.8170 nd         1 BJW      -0.586100
     77 C48        -17.5970    33.9400     1.8820 ca         1 BJW       0.153900
     78 N10        -20.4250    32.2860     0.6040 nv         1 BJW      -1.081900
     79 H1         -16.6980    28.7090     0.9880 h5         1 BJW       0.095800
     80 H4          -1.5260    27.0300     3.9060 ha         1 BJW       0.098000
     81 H5          -1.9780    24.6080     3.9030 ha         1 BJW       0.114000
     82 H6          -4.9740    25.1260    -0.5250 hn         1 BJW       0.358000
     83 H7          -4.9670    22.7250     0.1550 h4         1 BJW       0.229000
     84 H10         -3.7410    22.9790     4.5790 h1         1 BJW       0.081700
     85 H11         -5.4590    24.2530     4.4200 hn         1 BJW       0.298500
     86 H12         -7.4670    25.0880     4.2070 h1         1 BJW       0.033700
     87 H13         -8.1590    23.3330     5.8100 hc         1 BJW       0.059700
     88 H14         -9.4590    23.7640     4.6990 hc         1 BJW       0.059700
     89 H15         -8.5760    22.2580     4.4730 hc         1 BJW       0.059700
     90 H16         -7.2100    24.6060     1.7960 hc         1 BJW       0.059700
     91 H17         -7.9900    23.0360     2.0120 hc         1 BJW       0.059700
     92 H18         -8.8960    24.5170     2.3120 hc         1 BJW       0.059700
     93 H20         -3.6720    18.7200     5.7500 h1         1 BJW       0.063700
     94 H21         -2.6080    19.0250     8.3710 hn         1 BJW       0.334500
     95 H22          1.2000    18.3600     6.5260 h1         1 BJW       0.055200
     96 H23          1.3120    20.0490     7.0390 h1         1 BJW       0.055200
     97 H24          2.0200    20.6010     9.3640 ha         1 BJW       0.118000
     98 H25          3.3520    19.9020    11.3170 ha         1 BJW       0.109000
     99 H26          3.9830    17.5270    11.6030 ha         1 BJW       0.104000
    100 H27          3.2700    15.8540     9.9240 ha         1 BJW       0.109000
    101 H28          1.9340    16.5550     7.9730 ha         1 BJW       0.118000
    102 H29         -4.8860    18.2680     7.8380 hc         1 BJW       0.047200
    103 H30         -4.8670    19.9730     8.2580 hc         1 BJW       0.047200
    104 H31         -6.2660    20.4980     6.2630 hc         1 BJW       0.057700
    105 H32         -6.2120    18.8190     5.7650 hc         1 BJW       0.057700
    106 H33         -7.3750    18.1730     7.8910 hc         1 BJW       0.032200
    107 H34         -7.4160    19.8570     8.3800 hc         1 BJW       0.032200
    108 H35         -8.7900    20.4250     6.3930 h1         1 BJW       0.057700
    109 H36         -8.7250    18.7550     5.8540 h1         1 BJW       0.057700
    110 H37         -9.8150    18.2050     8.0140 hn         1 BJW       0.425000
    111 H39        -11.9730    19.2400     9.1590 hc         1 BJW       0.067700
    112 H40        -13.1800    19.2970     7.9020 hc         1 BJW       0.067700
    113 H41        -12.4620    16.9960     7.1330 hc         1 BJW       0.019700
    114 H42        -11.3630    16.9140     8.4930 hc         1 BJW       0.019700
    115 H43        -13.3540    15.7750     9.1420 hc         1 BJW       0.009700
    116 H44        -13.3010    17.2530    10.0590 hc         1 BJW       0.009700
    117 H46        -13.4170    21.6450     5.9390 h2         1 BJW       0.107700
    118 H47        -13.4270    19.2890     5.5500 h1         1 BJW       0.097700
    119 H48        -13.2070    20.0910     3.2990 h1         1 BJW       0.086700
    120 H49        -12.2970    18.0630     3.0280 ho         1 BJW       0.494000
    121 H50        -10.3230    20.7910     4.0080 h1         1 BJW       0.039700
    122 H51        -10.6410    21.0290     1.6850 h1         1 BJW       0.038200
    123 H52        -10.5620    22.6150     2.4400 h1         1 BJW       0.038200
    124 H57        -12.1830    29.2650     1.1790 h1         1 BJW       0.074700
    125 H58        -13.0370    28.3050     3.6250 h1         1 BJW       0.118700
    126 H59        -11.4730    29.9990     3.3520 ho         1 BJW       0.507000
    127 H60        -15.3200    28.8140     3.1720 h1         1 BJW       0.081700
    128 H61        -15.0230    29.8460     5.1520 ho         1 BJW       0.518000
    129 H62        -14.5020    31.5920     2.2240 h2         1 BJW       0.102700
    130 H63        -17.3760    34.9590     2.1800 h5         1 BJW       0.028100
    131 H64        -21.0890    33.0400     0.5750 hn         1 BJW       0.497000
    132 H65        -20.7250    31.3720     0.3140 hn         1 BJW       0.497000
    133 H8          -2.3570    22.0050     2.8150 hc         1 BJW       0.050200
    134 H2          -3.8960    27.5780     0.3660 ha         1 BJW       0.110000
    135 C43        -13.5500    27.6210     1.1060 c3         1 BJW       0.227600
    136 N5          -3.9410    20.9390     4.6860 ns         1 BJW      -0.476900
    137 H9          -3.7570    21.2660     2.0560 hc         1 BJW       0.050200
    138 H3          -2.4670    28.4960     2.1640 ha         1 BJW       0.097000
    139 H19         -4.1570    20.0850     4.1950 hn         1 BJW       0.325500
    140 H55        -14.5250    27.3340     1.5130 h1         1 BJW       0.032700
    141 H56        -13.6360    27.6120     0.0150 h1         1 BJW       0.032700
@<TRIPOS>BOND
     1     1     2 ar  
     2     1     6 ar  
     3     1    75 1   
     4     2     3 ar  
     5     2    76 1   
     6     3     5 ar  
     7     3    78 1   
     8     4    75 1   
     9     4    76 2   
    10     4    79 1   
    11     5    77 ar  
    12     6    77 ar  
    13     7     8 ar  
    14     7    12 ar  
    15     7   134 1   
    16     8     9 ar  
    17     8   138 1   
    18     9    10 ar  
    19     9    80 1   
    20    10    11 ar  
    21    10    81 1   
    22    11    12 ar  
    23    11    15 1   
    24    12    13 1   
    25    13    14 1   
    26    13    82 1   
    27    14    15 2   
    28    14    83 1   
    29    15    16 1   
    30    16    17 1   
    31    16   133 1   
    32    16   137 1   
    33    17    18 1   
    34    17    84 1   
    35    17   136 1   
    36    18    19 2   
    37    18    20 1   
    38    20    21 1   
    39    20    85 1   
    40    21    22 1   
    41    21    23 1   
    42    21    86 1   
    43    22    87 1   
    44    22    88 1   
    45    22    89 1   
    46    23    90 1   
    47    23    91 1   
    48    23    92 1   
    49    24    25 2   
    50    24    26 1   
    51    24   136 1   
    52    26    27 1   
    53    26    38 1   
    54    26    93 1   
    55    27    28 1   
    56    27    94 1   
    57    28    29 2   
    58    28    30 1   
    59    30    31 1   
    60    31    32 1   
    61    31    95 1   
    62    31    96 1   
    63    32    33 ar  
    64    32    37 ar  
    65    33    34 ar  
    66    33    97 1   
    67    34    35 ar  
    68    34    98 1   
    69    35    36 ar  
    70    35    99 1   
    71    36    37 ar  
    72    36   100 1   
    73    37   101 1   
    74    38    39 1   
    75    38   102 1   
    76    38   103 1   
    77    39    40 1   
    78    39   104 1   
    79    39   105 1   
    80    40    41 1   
    81    40   106 1   
    82    40   107 1   
    83    41    42 1   
    84    41   108 1   
    85    41   109 1   
    86    42    43 1   
    87    42   110 1   
    88    43    44 1   
    89    43    50 1   
    90    43    51 1   
    91    44    45 1   
    92    44   111 1   
    93    44   112 1   
    94    45    46 1   
    95    45   113 1   
    96    45   114 1   
    97    46    47 1   
    98    46   115 1   
    99    46   116 1   
   100    47    48 1   
   101    47    49 1   
   102    50    54 1   
   103    51    52 1   
   104    52    53 1   
   105    52    54 1   
   106    52   117 1   
   107    53    57 1   
   108    54    55 1   
   109    54   118 1   
   110    55    56 1   
   111    55    57 1   
   112    55   119 1   
   113    56   120 1   
   114    57    58 1   
   115    57   121 1   
   116    58    59 1   
   117    58   122 1   
   118    58   123 1   
   119    59    60 1   
   120    60    61 1   
   121    60    62 1   
   122    60    63 1   
   123    63    64 1   
   124    64    65 1   
   125    64    66 1   
   126    64    67 1   
   127    67   135 1   
   128    68    69 1   
   129    68    70 1   
   130    68   124 1   
   131    68   135 1   
   132    69    74 1   
   133    70    71 1   
   134    70    72 1   
   135    70   125 1   
   136    71   126 1   
   137    72    73 1   
   138    72    74 1   
   139    72   127 1   
   140    73   128 1   
   141    74    75 1   
   142    74   129 1   
   143    77   130 1   
   144    78   131 1   
   145    78   132 1   
   146   135   140 1   
   147   135   141 1   
   148   136   139 1   
@<TRIPOS>SUBSTRUCTURE
     1 BJW         1 TEMP              0 ****  ****    0 ROOT
