@<TRIPOS>MOLECULE
BJW
  141   148     1     0     0
SMALL
No Charge or Current Charge


@<TRIPOS>ATOM
      1 C1         -17.9810    30.8660     1.1160 ca         1 BJW       0.127500
      2 C2         -19.2670    31.2560     0.8340 ca         1 BJW      -0.091600
      3 C3         -19.4550    32.3470    -0.0410 ca         1 BJW       0.437900
      4 C4         -19.4650    29.5890     2.1850 cc         1 BJW       0.444700
      5 N1         -18.4090    32.9900    -0.5830 nb         1 BJW      -0.327000
      6 N2         -16.9080    31.4940     0.5940 nb         1 BJW      -0.195000
      7 C5          -2.1710    27.9480     2.9640 ca         1 BJW      -0.121000
      8 C6          -1.7850    28.1120     4.3130 ca         1 BJW      -0.107000
      9 C7          -1.6050    26.9820     5.1480 ca         1 BJW      -0.152000
     10 C8          -1.8120    25.6800     4.6450 ca         1 BJW      -0.067000
     11 C9          -2.2010    25.5570     3.3030 ca         1 BJW      -0.091800
     12 C10         -2.3690    26.6440     2.4940 ca         1 BJW      -0.048200
     13 N3          -2.7430    26.2190     1.2320 na         1 BJW      -0.214700
     14 C11         -2.8370    24.8110     1.2040 cc         1 BJW      -0.116100
     15 C12         -2.5070    24.4000     2.4920 cd         1 BJW      -0.162400
     16 C13         -2.5460    22.9750     2.9830 c3         1 BJW      -0.001200
     17 C14         -3.6600    22.7230     4.0290 c3         1 BJW       0.018700
     18 C15         -5.0810    23.0600     3.4920 c          1 BJW       0.582100
     19 O1          -5.9030    22.1920     3.2200 o          1 BJW      -0.613100
     20 N4          -5.3600    24.4100     3.3890 ns         1 BJW      -0.484900
     21 C16         -6.6200    25.0150     2.9520 c3         1 BJW       0.127700
     22 C17         -7.7820    24.6830     3.9110 c3         1 BJW      -0.113100
     23 C18         -6.9380    24.6810     1.4800 c3         1 BJW      -0.113100
     24 C19         -2.8730    20.8460     5.5450 c          1 BJW       0.602100
     25 O2          -2.0110    21.5330     6.0810 o          1 BJW      -0.613100
     26 C20         -3.1930    19.3840     5.9820 c3         1 BJW       0.050700
     27 N6          -2.0060    18.7930     6.6330 ns         1 BJW      -0.483900
     28 C21         -1.7700    17.4580     6.7900 c          1 BJW       0.638100
     29 O3          -2.5010    16.5610     6.4020 o          1 BJW      -0.548000
     30 O4          -0.5720    17.2990     7.4140 os         1 BJW      -0.461100
     31 C22         -0.1310    15.9560     7.6770 c3         1 BJW       0.230900
     32 C23          1.2340    16.0200     8.3520 ca         1 BJW      -0.090300
     33 C24          2.3720    15.4760     7.7210 ca         1 BJW      -0.084000
     34 C25          3.6290    15.5410     8.3480 ca         1 BJW      -0.119500
     35 C26          3.7580    16.1510     9.6070 ca         1 BJW      -0.107000
     36 C27          2.6280    16.6930    10.2420 ca         1 BJW      -0.119500
     37 C28          1.3700    16.6270     9.6170 ca         1 BJW      -0.084000
     38 C29         -4.4280    19.2980     6.9310 c3         1 BJW      -0.086400
     39 C30         -5.7340    19.8990     6.3530 c3         1 BJW      -0.079400
     40 C31         -6.9690    19.7220     7.2610 c3         1 BJW      -0.076400
     41 C32         -8.2180    20.4020     6.6610 c3         1 BJW       0.183800
     42 N7          -9.3790    20.2520     7.5690 n7         1 BJW      -0.892400
     43 C33        -10.6640    20.7730     7.1160 c5         1 BJW       0.614200
     44 C34        -11.8100    20.5150     8.1300 c3         1 BJW      -0.088400
     45 C35        -12.2030    19.0270     8.3250 c3         1 BJW      -0.047400
     46 C36        -13.2800    18.7800     9.4140 c3         1 BJW      -0.208400
     47 C37        -14.6390    19.3940     9.0230 c          1 BJW       0.715000
     48 O5         -15.3940    18.7280     8.3310 o          1 BJW      -0.743000
     49 O6         -14.8930    20.5280     9.4000 o          1 BJW      -0.743000
     50 O7         -10.9090    20.1640     5.8490 os         1 BJW      -0.465000
     51 S1         -10.4310    22.5630     6.8110 ss         1 BJW      -0.567000
     52 C38        -11.5860    22.4600     5.3590 c5         1 BJW       0.307300
     53 O8         -10.8950    22.9360     4.1860 os         1 BJW      -0.373000
     54 C39        -11.9000    20.9400     5.1170 c5         1 BJW       0.087300
     55 C40        -11.6000    20.7560     3.6020 c5         1 BJW       0.145300
     56 O9         -11.2300    19.4000     3.3160 oh         1 BJW      -0.701000
     57 C41        -10.4410    21.7870     3.4430 c5         1 BJW       0.151300
     58 C42        -10.0190    22.1620     1.9890 c3         1 BJW       0.244600
     59 O10        -11.1400    22.3200     1.0950 os         1 BJW      -0.613400
     60 P1         -12.0170    23.6750     1.0180 p5         1 BJW       1.487800
     61 O11        -12.6910    23.6990    -0.3140 o          1 BJW      -0.859500
     62 O12        -11.1400    24.8630     1.2240 o          1 BJW      -0.859500
     63 O13        -13.0140    23.3410     2.1920 os         1 BJW      -0.715800
     64 P2         -13.8840    24.5290     2.7520 p5         1 BJW       1.471800
     65 O14        -14.8720    23.9530     3.7080 o          1 BJW      -0.851500
     66 O15        -13.1160    25.6260     3.4080 o          1 BJW      -0.851500
     67 O16        -14.6540    25.0200     1.4240 os         1 BJW      -0.595400
     68 C44        -15.6300    27.1500     2.1900 c5         1 BJW       0.104300
     69 O17        -16.4270    28.1740     1.5280 os         1 BJW      -0.473000
     70 C45        -15.9940    27.2210     3.7200 c5         1 BJW       0.109300
     71 O18        -15.0040    27.9470     4.4770 oh         1 BJW      -0.730000
     72 C46        -17.3390    28.0010     3.6730 c5         1 BJW       0.133300
     73 O19        -17.6260    28.5940     4.9480 oh         1 BJW      -0.708000
     74 C47        -16.9990    29.0210     2.5420 c5         1 BJW       0.306300
     75 N8         -18.0970    29.8000     1.9640 na         1 BJW      -0.268300
     76 N9         -20.2180    30.4670     1.4910 nd         1 BJW      -0.586100
     77 C48        -17.1810    32.5320    -0.2340 ca         1 BJW       0.153900
     78 N10        -20.6870    32.8040    -0.3940 nv         1 BJW      -1.081900
     79 H1         -19.8420    28.8050     2.8320 h5         1 BJW       0.095800
     80 H4          -1.3040    27.1190     6.1840 ha         1 BJW       0.098000
     81 H5          -1.6700    24.8060     5.2770 ha         1 BJW       0.114000
     82 H6          -2.9250    26.8340     0.4450 hn         1 BJW       0.358000
     83 H7          -3.1350    24.2480     0.3240 h4         1 BJW       0.229000
     84 H10         -3.4920    23.3790     4.8920 h1         1 BJW       0.081700
     85 H11         -4.5860    25.0340     3.5890 hn         1 BJW       0.298500
     86 H12         -6.4680    26.1010     3.0030 h1         1 BJW       0.033700
     87 H13         -7.5360    24.9910     4.9340 hc         1 BJW       0.059700
     88 H14         -8.6940    25.2110     3.6090 hc         1 BJW       0.059700
     89 H15         -8.0000    23.6100     3.9230 hc         1 BJW       0.059700
     90 H16         -6.1020    24.9720     0.8330 hc         1 BJW       0.059700
     91 H17         -7.1230    23.6100     1.3410 hc         1 BJW       0.059700
     92 H18         -7.8290    25.2260     1.1470 hc         1 BJW       0.059700
     93 H20         -3.4050    18.8100     5.0700 h1         1 BJW       0.063700
     94 H21         -1.2900    19.4140     6.9910 hn         1 BJW       0.334500
     95 H22         -0.8370    15.4380     8.3400 h1         1 BJW       0.055200
     96 H23         -0.0590    15.3820     6.7440 h1         1 BJW       0.055200
     97 H24          2.2840    15.0040     6.7450 ha         1 BJW       0.118000
     98 H25          4.5040    15.1210     7.8560 ha         1 BJW       0.109000
     99 H26          4.7310    16.2030    10.0900 ha         1 BJW       0.104000
    100 H27          2.7260    17.1670    11.2160 ha         1 BJW       0.109000
    101 H28          0.4990    17.0520    10.1120 ha         1 BJW       0.118000
    102 H29         -4.6100    18.2460     7.1820 hc         1 BJW       0.047200
    103 H30         -4.1900    19.8090     7.8730 hc         1 BJW       0.047200
    104 H31         -5.5980    20.9750     6.1900 hc         1 BJW       0.057700
    105 H32         -5.9410    19.4440     5.3750 hc         1 BJW       0.057700
    106 H33         -7.1660    18.6530     7.4080 hc         1 BJW       0.032200
    107 H34         -6.7590    20.1550     8.2470 hc         1 BJW       0.032200
    108 H35         -7.9830    21.4610     6.4900 h1         1 BJW       0.057700
    109 H36         -8.4220    19.9480     5.6810 h1         1 BJW       0.057700
    110 H37         -9.5280    19.2530     7.7060 hn         1 BJW       0.425000
    111 H39        -11.5130    20.9300     9.1000 hc         1 BJW       0.067700
    112 H40        -12.6960    21.0810     7.8240 hc         1 BJW       0.067700
    113 H41        -12.5590    18.6170     7.3720 hc         1 BJW       0.019700
    114 H42        -11.3070    18.4560     8.5950 hc         1 BJW       0.019700
    115 H43        -13.3680    17.6880     9.4760 hc         1 BJW       0.009700
    116 H44        -12.8960    19.2370    10.3350 hc         1 BJW       0.009700
    117 H46        -12.4980    23.0460     5.5360 h2         1 BJW       0.107700
    118 H47        -12.9200    20.6540     5.4100 h1         1 BJW       0.097700
    119 H48        -12.4700    21.0500     3.0000 h1         1 BJW       0.086700
    120 H49        -10.8820    19.0640     4.1770 ho         1 BJW       0.494000
    121 H50         -9.5390    21.4160     3.9470 h1         1 BJW       0.039700
    122 H51         -9.3720    21.3580     1.6150 h1         1 BJW       0.038200
    123 H52         -9.4070    23.0710     2.0190 h1         1 BJW       0.038200
    124 H57        -14.5760    27.4160     2.0340 h1         1 BJW       0.074700
    125 H58        -16.1480    26.2170     4.1460 h1         1 BJW       0.118700
    126 H59        -14.1660    27.4200     4.4080 ho         1 BJW       0.507000
    127 H60        -18.1560    27.3360     3.3560 h1         1 BJW       0.081700
    128 H61        -16.7300    28.6850     5.3630 ho         1 BJW       0.518000
    129 H62        -16.2500    29.7440     2.8940 h2         1 BJW       0.102700
    130 H63        -16.3250    33.0480    -0.6650 h5         1 BJW       0.028100
    131 H64        -20.7600    33.3850    -1.2250 hn         1 BJW       0.497000
    132 H65        -21.4800    32.2030    -0.1840 hn         1 BJW       0.497000
    133 H8          -1.5750    22.7170     3.4240 hc         1 BJW       0.050200
    134 H2          -2.3110    28.8080     2.3130 ha         1 BJW       0.110000
    135 C43        -15.8800    25.7680     1.5100 c3         1 BJW       0.227600
    136 N5          -3.6370    21.3220     4.5010 ns         1 BJW      -0.476900
    137 H9          -2.6910    22.2910     2.1370 hc         1 BJW       0.050200
    138 H3          -1.6240    29.1110     4.7110 ha         1 BJW       0.097000
    139 H19         -4.3270    20.6880     4.1120 hn         1 BJW       0.325500
    140 H55        -16.6470    25.2110     2.0630 h1         1 BJW       0.032700
    141 H56        -16.2690    25.9390     0.4970 h1         1 BJW       0.032700
@<TRIPOS>BOND
     1     1     2 ar  
     2     1     6 ar  
     3     1    75 1   
     4     2     3 ar  
     5     2    76 1   
     6     3     5 ar  
     7     3    78 1   
     8     4    75 1   
     9     4    76 2   
    10     4    79 1   
    11     5    77 ar  
    12     6    77 ar  
    13     7     8 ar  
    14     7    12 ar  
    15     7   134 1   
    16     8     9 ar  
    17     8   138 1   
    18     9    10 ar  
    19     9    80 1   
    20    10    11 ar  
    21    10    81 1   
    22    11    12 ar  
    23    11    15 1   
    24    12    13 1   
    25    13    14 1   
    26    13    82 1   
    27    14    15 2   
    28    14    83 1   
    29    15    16 1   
    30    16    17 1   
    31    16   133 1   
    32    16   137 1   
    33    17    18 1   
    34    17    84 1   
    35    17   136 1   
    36    18    19 2   
    37    18    20 1   
    38    20    21 1   
    39    20    85 1   
    40    21    22 1   
    41    21    23 1   
    42    21    86 1   
    43    22    87 1   
    44    22    88 1   
    45    22    89 1   
    46    23    90 1   
    47    23    91 1   
    48    23    92 1   
    49    24    25 2   
    50    24    26 1   
    51    24   136 1   
    52    26    27 1   
    53    26    38 1   
    54    26    93 1   
    55    27    28 1   
    56    27    94 1   
    57    28    29 2   
    58    28    30 1   
    59    30    31 1   
    60    31    32 1   
    61    31    95 1   
    62    31    96 1   
    63    32    33 ar  
    64    32    37 ar  
    65    33    34 ar  
    66    33    97 1   
    67    34    35 ar  
    68    34    98 1   
    69    35    36 ar  
    70    35    99 1   
    71    36    37 ar  
    72    36   100 1   
    73    37   101 1   
    74    38    39 1   
    75    38   102 1   
    76    38   103 1   
    77    39    40 1   
    78    39   104 1   
    79    39   105 1   
    80    40    41 1   
    81    40   106 1   
    82    40   107 1   
    83    41    42 1   
    84    41   108 1   
    85    41   109 1   
    86    42    43 1   
    87    42   110 1   
    88    43    44 1   
    89    43    50 1   
    90    43    51 1   
    91    44    45 1   
    92    44   111 1   
    93    44   112 1   
    94    45    46 1   
    95    45   113 1   
    96    45   114 1   
    97    46    47 1   
    98    46   115 1   
    99    46   116 1   
   100    47    48 1   
   101    47    49 1   
   102    50    54 1   
   103    51    52 1   
   104    52    53 1   
   105    52    54 1   
   106    52   117 1   
   107    53    57 1   
   108    54    55 1   
   109    54   118 1   
   110    55    56 1   
   111    55    57 1   
   112    55   119 1   
   113    56   120 1   
   114    57    58 1   
   115    57   121 1   
   116    58    59 1   
   117    58   122 1   
   118    58   123 1   
   119    59    60 1   
   120    60    61 1   
   121    60    62 1   
   122    60    63 1   
   123    63    64 1   
   124    64    65 1   
   125    64    66 1   
   126    64    67 1   
   127    67   135 1   
   128    68    69 1   
   129    68    70 1   
   130    68   124 1   
   131    68   135 1   
   132    69    74 1   
   133    70    71 1   
   134    70    72 1   
   135    70   125 1   
   136    71   126 1   
   137    72    73 1   
   138    72    74 1   
   139    72   127 1   
   140    73   128 1   
   141    74    75 1   
   142    74   129 1   
   143    77   130 1   
   144    78   131 1   
   145    78   132 1   
   146   135   140 1   
   147   135   141 1   
   148   136   139 1   
@<TRIPOS>SUBSTRUCTURE
     1 BJW         1 TEMP              0 ****  ****    0 ROOT
