@<TRIPOS>MOLECULE
BJX
   68    70     1     0     0
SMALL
abcg2


@<TRIPOS>ATOM
      1 C9           3.1730     2.8610     0.8030 c3         1 BJX      -0.060700
      2 C10          4.2950    -2.6650     0.1870 ca         1 BJX      -0.151000
      3 C11          2.4380    -1.7920     2.0370 ca         1 BJX      -0.084000
      4 C12          1.8350     3.5590     1.0260 c3         1 BJX      -0.087100
      5 C13          4.3130     3.7180     1.3450 c3         1 BJX      -0.087100
      6 C14          3.9640    -3.4760     1.2660 ca         1 BJX      -0.103000
      7 C15          3.0260    -3.0430     2.1880 ca         1 BJX      -0.121000
      8 C16         -0.2140     0.2670     1.0420 c          1 BJX       0.593100
      9 C17         -1.4090     0.6180     1.9160 c3         1 BJX      -0.096100
     10 C18         -2.6970     0.0500     1.4050 ca         1 BJX      -0.076300
     11 C19         -3.4290     0.7450     0.4470 ca         1 BJX      -0.208000
     12 C20         -3.1810    -1.1620     1.8740 ca         1 BJX      -0.154000
     13 C8           3.2590     1.4580     1.4080 c3         1 BJX      -0.075400
     14 C7           2.7720    -0.9630     0.9750 ca         1 BJX      -0.078300
     15 C6           3.7070    -1.4120     0.0270 ca         1 BJX       0.262000
     16 C5           2.2280     0.4510     0.8780 c3         1 BJX       0.169000
     17 C4           4.6790     0.7010    -3.5550 c6         1 BJX      -0.075400
     18 C3           5.6580     0.6480    -2.3880 c6         1 BJX      -0.076900
     19 C2           3.2410     0.5900    -3.0620 c6         1 BJX      -0.076900
     20 C1           5.4020    -0.5730    -1.5160 c6         1 BJX       0.187300
     21 O2          -6.5930    -1.6030    -1.3400 o          1 BJX      -0.714500
     22 N            4.0270    -0.5630    -1.0540 nh         1 BJX      -0.794400
     23 C            3.0750    -0.6200    -2.1570 c6         1 BJX       0.187300
     24 O           -0.3240    -0.2480    -0.0590 o          1 BJX      -0.577100
     25 C21         -4.6230     0.2340    -0.0590 ca         1 BJX       0.157100
     26 C22         -4.3820    -1.6580     1.3840 ca         1 BJX      -0.070000
     27 C23         -5.1140    -0.9980     0.4060 ca         1 BJX      -0.135600
     28 C24         -6.3910    -1.6460    -0.1140 c          1 BJX       0.721600
     29 C25         -4.9530     2.1700    -1.4140 c3         1 BJX       0.165600
     30 C26         -5.9890     2.6850    -2.3850 c3         1 BJX      -0.087100
     31 N1           0.9710     0.6050     1.5770 ns         1 BJX      -0.526900
     32 O3          -7.1050    -2.2010     0.7450 o          1 BJX      -0.714500
     33 H1           3.3210     2.7470    -0.2780 hc         1 BJX       0.052700
     34 H2           5.0160    -3.0170    -0.5400 ha         1 BJX       0.107000
     35 H3           1.7150    -1.4580     2.7710 ha         1 BJX       0.116000
     36 H4           1.6000     3.6340     2.0910 hc         1 BJX       0.030700
     37 H5           1.8660     4.5740     0.6260 hc         1 BJX       0.030700
     38 H6           1.0080     3.0440     0.5390 hc         1 BJX       0.030700
     39 H7           5.2860     3.2650     1.1430 hc         1 BJX       0.030700
     40 H8           4.3100     4.7110     0.8920 hc         1 BJX       0.030700
     41 H9           4.2240     3.8470     2.4260 hc         1 BJX       0.030700
     42 H10          4.4320    -4.4460     1.3740 ha         1 BJX       0.106000
     43 H11          2.7540    -3.6700     3.0280 ha         1 BJX       0.110000
     44 H12         -1.2180     0.2790     2.9380 hc         1 BJX       0.046200
     45 H13         -1.4700     1.7090     1.9690 hc         1 BJX       0.046200
     46 H14         -3.0500     1.7020     0.1110 ha         1 BJX       0.089000
     47 H15         -2.6310    -1.7150     2.6270 ha         1 BJX       0.085000
     48 H16          4.2530     1.0670     1.1870 hc         1 BJX       0.044200
     49 H17          3.1920     1.5100     2.5020 hc         1 BJX       0.044200
     50 H18          2.0410     0.6920    -0.1680 h1         1 BJX       0.086700
     51 H19          4.8170     1.6190    -4.1310 hc         1 BJX       0.034200
     52 H20          4.8860    -0.1290    -4.2390 hc         1 BJX       0.034200
     53 H21          6.6880     0.6250    -2.7520 hc         1 BJX       0.044700
     54 H22          5.5550     1.5470    -1.7720 hc         1 BJX       0.044700
     55 H23          2.9660     1.4920    -2.5060 hc         1 BJX       0.044700
     56 H24          2.5500     0.5120    -3.9050 hc         1 BJX       0.044700
     57 H25          5.6470    -1.4830    -2.0900 h1         1 BJX       0.038950
     58 H26          6.0640    -0.5590    -0.6480 h1         1 BJX       0.038950
     59 H27          2.0600    -0.6580    -1.7570 h1         1 BJX       0.038950
     60 H28          3.2130    -1.5430    -2.7460 h1         1 BJX       0.038950
     61 H29         -4.7620    -2.5960     1.7700 ha         1 BJX       0.124000
     62 H30         -4.8460     2.8620    -0.5710 h1         1 BJX       0.014700
     63 H31         -3.9760     2.1010    -1.9050 h1         1 BJX       0.014700
     64 H32         -5.6850     3.6640    -2.7540 hc         1 BJX       0.038033
     65 H33         -6.0950     2.0220    -3.2440 hc         1 BJX       0.038033
     66 H34         -6.9630     2.7950    -1.9090 hc         1 BJX       0.038033
     67 H35          0.9850     1.0110     2.4990 hn         1 BJX       0.304500
     68 O1          -5.3740     0.8950    -0.9610 os         1 BJX      -0.303100
@<TRIPOS>BOND
     1     1     4 1   
     2     1     5 1   
     3     1    13 1   
     4     1    33 1   
     5     2     6 ar  
     6     2    15 ar  
     7     2    34 1   
     8     3     7 ar  
     9     3    14 ar  
    10     3    35 1   
    11     4    36 1   
    12     4    37 1   
    13     4    38 1   
    14     5    39 1   
    15     5    40 1   
    16     5    41 1   
    17     6     7 ar  
    18     6    42 1   
    19     7    43 1   
    20     8     9 1   
    21     8    24 2   
    22     8    31 1   
    23     9    10 1   
    24     9    44 1   
    25     9    45 1   
    26    10    11 ar  
    27    10    12 ar  
    28    11    25 ar  
    29    11    46 1   
    30    12    26 ar  
    31    12    47 1   
    32    13    16 1   
    33    13    48 1   
    34    13    49 1   
    35    14    15 ar  
    36    14    16 1   
    37    15    22 1   
    38    16    31 1   
    39    16    50 1   
    40    17    18 1   
    41    17    19 1   
    42    17    51 1   
    43    17    52 1   
    44    18    20 1   
    45    18    53 1   
    46    18    54 1   
    47    19    23 1   
    48    19    55 1   
    49    19    56 1   
    50    20    22 1   
    51    20    57 1   
    52    20    58 1   
    53    21    28 1   
    54    22    23 1   
    55    23    59 1   
    56    23    60 1   
    57    25    27 ar  
    58    25    68 1   
    59    26    27 ar  
    60    26    61 1   
    61    27    28 1   
    62    28    32 1   
    63    29    30 1   
    64    29    62 1   
    65    29    63 1   
    66    29    68 1   
    67    30    64 1   
    68    30    65 1   
    69    30    66 1   
    70    31    67 1   
@<TRIPOS>SUBSTRUCTURE
     1 BJX         1 TEMP              0 ****  ****    0 ROOT
