@<TRIPOS>MOLECULE
BJX
   68    70     1     0     0
SMALL
No Charge or Current Charge


@<TRIPOS>ATOM
      1 C9           3.9260     2.5640     1.3340 c3         1 BJX      -0.060700
      2 C10          2.6990    -2.7380    -0.8130 ca         1 BJX      -0.151000
      3 C11          1.1560    -1.4960     1.1700 ca         1 BJX      -0.084000
      4 C12          2.9400     3.7240     1.6170 c3         1 BJX      -0.087100
      5 C13          5.2060     2.7170     2.1860 c3         1 BJX      -0.087100
      6 C14          1.8370    -3.5070    -0.0150 ca         1 BJX      -0.103000
      7 C15          1.0680    -2.8840     0.9780 ca         1 BJX      -0.121000
      8 C16         -0.1830     1.7610     0.2540 c          1 BJX       0.593100
      9 C17         -1.4170     2.2830     1.0000 c3         1 BJX      -0.096100
     10 C18         -2.4560     1.1770     1.1480 ca         1 BJX      -0.076300
     11 C19         -3.5020     1.0500     0.2150 ca         1 BJX      -0.208000
     12 C20         -2.3710     0.2680     2.2170 ca         1 BJX      -0.154000
     13 C8           3.3020     1.1520     1.5270 c3         1 BJX      -0.075400
     14 C7           2.0100    -0.7090     0.3620 ca         1 BJX      -0.078300
     15 C6           2.7940    -1.3450    -0.6340 ca         1 BJX       0.262000
     16 C5           2.1220     0.8070     0.5820 c3         1 BJX       0.169000
     17 C4           5.5210     0.9930    -3.0840 c6         1 BJX      -0.075400
     18 C3           5.9780     0.3210    -1.7660 c6         1 BJX      -0.076900
     19 C2           4.0010     1.2840    -3.0410 c6         1 BJX      -0.076900
     20 C1           5.1330    -0.9400    -1.4560 c6         1 BJX       0.187300
     21 O2          -5.4260    -2.8640     0.7110 o          1 BJX      -0.714500
     22 N            3.6850    -0.6060    -1.4420 nh         1 BJX      -0.794400
     23 C            3.1930     0.0060    -2.7040 c6         1 BJX       0.187300
     24 O           -0.1350     1.6690    -0.9650 o          1 BJX      -0.577100
     25 C21         -4.4610     0.0180     0.3430 ca         1 BJX       0.157100
     26 C22         -3.3180    -0.7580     2.3510 ca         1 BJX      -0.070000
     27 C23         -4.3630    -0.8930     1.4150 ca         1 BJX      -0.135600
     28 C24         -5.3640    -2.0020     1.5770 c          1 BJX       0.721600
     29 C25         -5.6880     0.7720    -1.6650 c3         1 BJX       0.165600
     30 C26         -6.9480     0.3220    -2.4210 c3         1 BJX      -0.087100
     31 N1           0.8630     1.3810     1.0640 ns         1 BJX      -0.526900
     32 O3          -5.9980    -2.0480     2.6220 o          1 BJX      -0.714500
     33 H1           4.2320     2.6480     0.2830 hc         1 BJX       0.052700
     34 H2           3.2960    -3.2250    -1.5790 ha         1 BJX       0.107000
     35 H3           0.5590    -1.0370     1.9540 ha         1 BJX       0.116000
     36 H4           2.5070     3.6340     2.6200 hc         1 BJX       0.030700
     37 H5           3.4530     4.6910     1.5520 hc         1 BJX       0.030700
     38 H6           2.1270     3.7390     0.8830 hc         1 BJX       0.030700
     39 H7           5.9340     1.9350     1.9380 hc         1 BJX       0.030700
     40 H8           5.6820     3.6880     2.0020 hc         1 BJX       0.030700
     41 H9           4.9750     2.6450     3.2560 hc         1 BJX       0.030700
     42 H10          1.7700    -4.5820    -0.1630 ha         1 BJX       0.106000
     43 H11          0.4040    -3.4770     1.6040 ha         1 BJX       0.110000
     44 H12         -1.1260     2.6250     2.0000 hc         1 BJX       0.046200
     45 H13         -1.8440     3.1220     0.4380 hc         1 BJX       0.046200
     46 H14         -3.5540     1.7620    -0.6030 ha         1 BJX       0.089000
     47 H15         -1.5690     0.3540     2.9460 ha         1 BJX       0.085000
     48 H16          4.0970     0.4180     1.3490 hc         1 BJX       0.044200
     49 H17          2.9920     1.0130     2.5700 hc         1 BJX       0.044200
     50 H18          2.3380     1.2740    -0.3870 h1         1 BJX       0.086700
     51 H19          6.0800     1.9240    -3.2470 hc         1 BJX       0.034200
     52 H20          5.7480     0.3330    -3.9330 hc         1 BJX       0.034200
     53 H21          7.0400     0.0500    -1.8290 hc         1 BJX       0.044700
     54 H22          5.8860     1.0340    -0.9350 hc         1 BJX       0.044700
     55 H23          3.7950     2.0570    -2.2880 hc         1 BJX       0.044700
     56 H24          3.6690     1.6900    -4.0060 hc         1 BJX       0.044700
     57 H25          5.3350    -1.7120    -2.2130 h1         1 BJX       0.038950
     58 H26          5.4400    -1.3430    -0.4800 h1         1 BJX       0.038950
     59 H27          2.1290     0.2700    -2.6110 h1         1 BJX       0.038950
     60 H28          3.2840    -0.7140    -3.5310 h1         1 BJX       0.038950
     61 H29         -3.2410    -1.4570     3.1820 ha         1 BJX       0.124000
     62 H30         -5.8180     1.8080    -1.3260 h1         1 BJX       0.014700
     63 H31         -4.8220     0.7250    -2.3380 h1         1 BJX       0.014700
     64 H32         -7.1220     0.9710    -3.2880 hc         1 BJX       0.038033
     65 H33         -6.8360    -0.7080    -2.7800 hc         1 BJX       0.038033
     66 H34         -7.8290     0.3730    -1.7710 hc         1 BJX       0.038033
     67 H35          0.7340     1.4930     2.0610 hn         1 BJX       0.304500
     68 O1          -5.5120    -0.1110    -0.5460 os         1 BJX      -0.303100
@<TRIPOS>BOND
     1     1     4 1   
     2     1     5 1   
     3     1    13 1   
     4     1    33 1   
     5     2     6 ar  
     6     2    15 ar  
     7     2    34 1   
     8     3     7 ar  
     9     3    14 ar  
    10     3    35 1   
    11     4    36 1   
    12     4    37 1   
    13     4    38 1   
    14     5    39 1   
    15     5    40 1   
    16     5    41 1   
    17     6     7 ar  
    18     6    42 1   
    19     7    43 1   
    20     8     9 1   
    21     8    24 2   
    22     8    31 1   
    23     9    10 1   
    24     9    44 1   
    25     9    45 1   
    26    10    11 ar  
    27    10    12 ar  
    28    11    25 ar  
    29    11    46 1   
    30    12    26 ar  
    31    12    47 1   
    32    13    16 1   
    33    13    48 1   
    34    13    49 1   
    35    14    15 ar  
    36    14    16 1   
    37    15    22 1   
    38    16    31 1   
    39    16    50 1   
    40    17    18 1   
    41    17    19 1   
    42    17    51 1   
    43    17    52 1   
    44    18    20 1   
    45    18    53 1   
    46    18    54 1   
    47    19    23 1   
    48    19    55 1   
    49    19    56 1   
    50    20    22 1   
    51    20    57 1   
    52    20    58 1   
    53    21    28 1   
    54    22    23 1   
    55    23    59 1   
    56    23    60 1   
    57    25    27 ar  
    58    25    68 1   
    59    26    27 ar  
    60    26    61 1   
    61    27    28 1   
    62    28    32 1   
    63    29    30 1   
    64    29    62 1   
    65    29    63 1   
    66    29    68 1   
    67    30    64 1   
    68    30    65 1   
    69    30    66 1   
    70    31    67 1   
@<TRIPOS>SUBSTRUCTURE
     1 BJX         1 TEMP              0 ****  ****    0 ROOT
