@<TRIPOS>MOLECULE
BJY
   77    82     1     0     0
SMALL
abcg2


@<TRIPOS>ATOM
      1 C11          3.2640     0.2370     0.7290 cc         1 BJY       0.323500
      2 C14          0.4100    -1.0840     2.2560 c3         1 BJY       0.083600
      3 C15         -0.8120    -0.6460     1.4660 c3         1 BJY       0.149300
      4 C10          4.3930    -1.7520    -0.6380 c6         1 BJY       0.288100
      5 C9           3.3760    -1.0770     0.2230 cc         1 BJY      -0.197300
      6 C1           5.3210    -4.1240    -2.8390 c3         1 BJY      -0.383100
      7 C8           2.3040    -1.7480     0.7580 cd         1 BJY      -0.106300
      8 C7           1.9900    -3.1810     0.5270 c6         1 BJY      -0.010100
      9 C6           2.8140    -3.6420    -0.6690 c6         1 BJY       0.206800
     10 C16         -2.0830    -0.8940     2.2840 c3         1 BJY       0.127800
     11 C18         -4.3490    -1.6570     1.8470 c6         1 BJY       0.171800
     12 C19         -5.4260    -1.7240     0.7780 c6         1 BJY      -0.072400
     13 C20         -5.9180    -0.3250     0.4040 c6         1 BJY      -0.006500
     14 C21         -4.7200     0.5570     0.0370 c6         1 BJY      -0.072400
     15 C22         -3.6680     0.5330     1.1330 c6         1 BJY       0.171800
     16 C23         -6.9360    -0.3580    -0.6910 cc         1 BJY      -0.068400
     17 C24         -6.8770    -1.0520    -1.8640 cd         1 BJY      -0.120100
     18 C25         -8.8000     0.0470    -1.9850 ca         1 BJY       0.008800
     19 C26        -10.0370     0.5900    -2.3270 ca         1 BJY      -0.105000
     20 C27        -10.6150     1.4370    -1.4260 ca         1 BJY      -0.078000
     21 C30         -8.8090     1.2250     0.1120 ca         1 BJY       0.077700
     22 C31         -8.1700     0.3620    -0.7500 ca         1 BJY      -0.143800
     23 C32          4.1330     1.3960     0.5260 ca         1 BJY      -0.083500
     24 C33          5.0030     1.4720    -0.5600 ca         1 BJY      -0.101000
     25 C34          5.8290     2.5720    -0.7400 ca         1 BJY      -0.062000
     26 C35          5.7940     3.6210     0.1660 ca         1 BJY      -0.192300
     27 C36          4.9210     3.5640     1.2500 ca         1 BJY      -0.062000
     28 C37          4.1040     2.4650     1.4270 ca         1 BJY      -0.101000
     29 C38          6.6600     4.8280     0.0010 c3         1 BJY       0.357300
     30 F39          5.9340     5.9300    -0.2440 f          1 BJY      -0.113000
     31 F40          7.3690     5.0850     1.1110 f          1 BJY      -0.113000
     32 F41          7.5340     4.7070    -1.0020 f          1 BJY      -0.113000
     33 N12          2.2020     0.3330     1.5170 nd         1 BJY      -0.525800
     34 N13          1.6410    -0.8680     1.5310 na         1 BJY       0.153800
     35 N17         -3.2380    -0.8290     1.4090 n3         1 BJY      -0.755600
     36 N28         -9.9870     1.7300    -0.2610 na         1 BJY       0.194300
     37 N43         -7.9920    -0.8040    -2.6290 na         1 BJY      -0.164700
     38 N5           4.2010    -3.1980    -0.5000 n3         1 BJY      -0.738500
     39 O29        -10.6400     2.5300     0.6180 oh         1 BJY      -0.454000
     40 O3           5.0780    -5.5370    -0.6410 o          1 BJY      -0.524500
     41 O4           6.6660    -3.5970    -0.6460 o          1 BJY      -0.524500
     42 O42         -0.8790    -1.3670     0.2640 oh         1 BJY      -0.661000
     43 S2           5.4010    -4.1820    -1.0630 s6         1 BJY       1.205100
     44 H1           0.4680    -0.5280     3.1920 h1         1 BJY       0.072700
     45 H2           0.3430    -2.1440     2.5030 h1         1 BJY       0.072700
     46 H3          -0.7120     0.4320     1.2660 h1         1 BJY       0.057700
     47 H4           4.2900    -1.4380    -1.6860 h1         1 BJY       0.062700
     48 H5           5.4020    -1.4940    -0.3160 h1         1 BJY       0.062700
     49 H6           5.5010    -3.1070    -3.1800 h1         1 BJY       0.101033
     50 H7           6.0940    -4.7830    -3.2310 h1         1 BJY       0.101033
     51 H8           4.3440    -4.4660    -3.1720 h1         1 BJY       0.101033
     52 H9           2.2370    -3.7800     1.4070 hc         1 BJY       0.070700
     53 H10          0.9300    -3.3300     0.3160 hc         1 BJY       0.070700
     54 H11          2.7760    -4.7260    -0.7420 h1         1 BJY       0.057700
     55 H12          2.3930    -3.2310    -1.5930 h1         1 BJY       0.057700
     56 H13         -2.0390    -1.9000     2.7110 h1         1 BJY       0.052700
     57 H14         -2.1370    -0.1890     3.1260 h1         1 BJY       0.052700
     58 H15         -4.7850    -1.2810     2.7870 h1         1 BJY       0.046950
     59 H16         -3.9750    -2.6620     2.0520 h1         1 BJY       0.046950
     60 H17         -5.0180    -2.2250    -0.1050 hc         1 BJY       0.054200
     61 H18         -6.2590    -2.3320     1.1370 hc         1 BJY       0.054200
     62 H19         -6.3870     0.1070     1.2960 hc         1 BJY       0.053700
     63 H20         -4.2790     0.1990    -0.8970 hc         1 BJY       0.054200
     64 H21         -5.0460     1.5850    -0.1340 hc         1 BJY       0.054200
     65 H22         -2.8080     1.1290     0.8190 h1         1 BJY       0.046950
     66 H23         -4.0660     1.0100     2.0440 h1         1 BJY       0.046950
     67 H24         -6.1140    -1.7190    -2.2330 h4         1 BJY       0.256000
     68 H25        -10.5430     0.3620    -3.2540 ha         1 BJY       0.178000
     69 H26        -11.5720     1.9090    -1.5830 h4         1 BJY       0.195000
     70 H27         -8.4280     1.5320     1.0760 h4         1 BJY       0.195000
     71 H28          5.0340     0.6850    -1.2990 ha         1 BJY       0.124500
     72 H29          6.4880     2.5910    -1.5970 ha         1 BJY       0.131000
     73 H30          4.8750     4.3720     1.9700 ha         1 BJY       0.131000
     74 H31          3.4410     2.4320     2.2810 ha         1 BJY       0.124500
     75 H33        -10.3960     3.4430     0.3960 ho         1 BJY       0.492000
     76 H34         -1.8340    -1.4280     0.0790 ho         1 BJY       0.467000
     77 H32         -8.1680    -1.2100    -3.5350 hn         1 BJY       0.390000
@<TRIPOS>BOND
     1     1     5 1   
     2     1    23 1   
     3     1    33 2   
     4     2     3 1   
     5     2    34 1   
     6     2    44 1   
     7     2    45 1   
     8     3    10 1   
     9     3    42 1   
    10     3    46 1   
    11     4     5 1   
    12     4    38 1   
    13     4    47 1   
    14     4    48 1   
    15     5     7 2   
    16     6    43 1   
    17     6    49 1   
    18     6    50 1   
    19     6    51 1   
    20     7     8 1   
    21     7    34 1   
    22     8     9 1   
    23     8    52 1   
    24     8    53 1   
    25     9    38 1   
    26     9    54 1   
    27     9    55 1   
    28    10    35 1   
    29    10    56 1   
    30    10    57 1   
    31    11    12 1   
    32    11    35 1   
    33    11    58 1   
    34    11    59 1   
    35    12    13 1   
    36    12    60 1   
    37    12    61 1   
    38    13    14 1   
    39    13    16 1   
    40    13    62 1   
    41    14    15 1   
    42    14    63 1   
    43    14    64 1   
    44    15    35 1   
    45    15    65 1   
    46    15    66 1   
    47    16    17 2   
    48    16    22 1   
    49    17    37 1   
    50    17    67 1   
    51    18    19 ar  
    52    18    22 ar  
    53    18    37 1   
    54    19    20 ar  
    55    19    68 1   
    56    20    36 1   
    57    20    69 1   
    58    21    22 ar  
    59    21    36 2   
    60    21    70 1   
    61    23    24 ar  
    62    23    28 ar  
    63    24    25 ar  
    64    24    71 1   
    65    25    26 ar  
    66    25    72 1   
    67    26    27 ar  
    68    26    29 1   
    69    27    28 ar  
    70    27    73 1   
    71    28    74 1   
    72    29    30 1   
    73    29    31 1   
    74    29    32 1   
    75    33    34 1   
    76    36    39 1   
    77    37    77 1   
    78    38    43 1   
    79    39    75 1   
    80    40    43 2   
    81    41    43 2   
    82    42    76 1   
@<TRIPOS>SUBSTRUCTURE
     1 BJY         1 TEMP              0 ****  ****    0 ROOT
