@<TRIPOS>MOLECULE
BJY
   77    82     1     0     0
SMALL
No Charge or Current Charge


@<TRIPOS>ATOM
      1 C11          3.3080     0.1660     0.8970 cc         1 BJY       0.323500
      2 C14          0.4080    -1.3930     2.2240 c3         1 BJY       0.083600
      3 C15         -0.8800    -0.9290     1.5070 c3         1 BJY       0.149300
      4 C10          4.5230    -1.6030    -0.6570 c6         1 BJY       0.288100
      5 C9           3.4270    -1.0940     0.2500 cc         1 BJY      -0.197300
      6 C1           5.1370    -3.4910    -3.4190 c3         1 BJY      -0.383100
      7 C8           2.3710    -1.8470     0.6390 cd         1 BJY      -0.106300
      8 C7           2.1580    -3.2770     0.2120 c6         1 BJY      -0.010100
      9 C6           3.1000    -3.6120    -0.9730 c6         1 BJY       0.206800
     10 C16         -2.1570    -1.1290     2.3630 c3         1 BJY       0.127800
     11 C18         -4.5600    -1.7090     2.3120 c6         1 BJY       0.171800
     12 C19         -5.8050    -1.8800     1.4120 c6         1 BJY      -0.072400
     13 C20         -6.1990    -0.5320     0.7520 c6         1 BJY      -0.006500
     14 C21         -4.9760     0.0340    -0.0100 c6         1 BJY      -0.072400
     15 C22         -3.7420     0.1440     0.9170 c6         1 BJY       0.171800
     16 C23         -7.3910    -0.6480    -0.1810 cc         1 BJY      -0.068400
     17 C24         -7.9400    -1.8400    -0.6590 cd         1 BJY      -0.120100
     18 C25         -9.1330    -0.1800    -1.5610 ca         1 BJY       0.008800
     19 C26        -10.0680     0.5990    -2.2610 ca         1 BJY      -0.105000
     20 C27         -9.9850     2.0050    -2.1320 ca         1 BJY      -0.078000
     21 C30         -8.0890     1.7940    -0.6320 ca         1 BJY       0.077700
     22 C31         -8.1770     0.3980    -0.7740 ca         1 BJY      -0.143800
     23 C32          4.1800     1.3640     0.7640 ca         1 BJY      -0.083500
     24 C33          5.1240     1.5300    -0.2780 ca         1 BJY      -0.101000
     25 C34          5.9100     2.6920    -0.3730 ca         1 BJY      -0.062000
     26 C35          5.7750     3.7340     0.5640 ca         1 BJY      -0.192300
     27 C36          4.8130     3.5990     1.5820 ca         1 BJY      -0.062000
     28 C37          4.0270     2.4380     1.6750 ca         1 BJY      -0.101000
     29 C38          6.6260     5.0040     0.4510 c3         1 BJY       0.357300
     30 F39          6.0240     5.9310    -0.3290 f          1 BJY      -0.113000
     31 F40          6.8480     5.5840     1.6530 f          1 BJY      -0.113000
     32 F41          7.8420     4.7620    -0.0900 f          1 BJY      -0.113000
     33 N12          2.2260     0.2110     1.6640 nd         1 BJY      -0.525800
     34 N13          1.6420    -1.0370     1.5040 na         1 BJY       0.153800
     35 N17         -3.4030    -1.1730     1.5400 n3         1 BJY      -0.755600
     36 N28         -8.9960     2.5980    -1.3330 na         1 BJY       0.194300
     37 N43         -9.0280    -1.5570    -1.5230 na         1 BJY      -0.164700
     38 N5           4.4790    -3.0900    -0.7460 n3         1 BJY      -0.738500
     39 O29         -8.9420     3.9860    -1.2150 oh         1 BJY      -0.454000
     40 O3           5.7010    -5.2190    -1.4680 o          1 BJY      -0.524500
     41 O4           6.9170    -3.0020    -1.5200 o          1 BJY      -0.524500
     42 O42         -1.1070    -1.6640     0.3010 oh         1 BJY      -0.661000
     43 S2           5.6960    -3.7800    -1.7460 s6         1 BJY       1.205100
     44 H1           0.4510    -0.9310     3.2180 h1         1 BJY       0.072700
     45 H2           0.3800    -2.4800     2.3660 h1         1 BJY       0.072700
     46 H3          -0.7880     0.1420     1.2800 h1         1 BJY       0.057700
     47 H4           4.4000    -1.1630    -1.6580 h1         1 BJY       0.062700
     48 H5           5.4990    -1.2810    -0.2660 h1         1 BJY       0.062700
     49 H6           5.0130    -2.4130    -3.5520 h1         1 BJY       0.101033
     50 H7           5.9090    -3.8830    -4.0890 h1         1 BJY       0.101033
     51 H8           4.1920    -4.0250    -3.5580 h1         1 BJY       0.101033
     52 H9           2.3780    -3.9510     1.0500 hc         1 BJY       0.070700
     53 H10          1.1150    -3.4590    -0.0770 hc         1 BJY       0.070700
     54 H11          3.1050    -4.7050    -1.1040 h1         1 BJY       0.057700
     55 H12          2.6790    -3.1810    -1.8930 h1         1 BJY       0.057700
     56 H13         -2.0470    -2.0790     2.9060 h1         1 BJY       0.052700
     57 H14         -2.2150    -0.3350     3.1200 h1         1 BJY       0.052700
     58 H15         -4.8070    -1.0380     3.1490 h1         1 BJY       0.046950
     59 H16         -4.3080    -2.6880     2.7470 h1         1 BJY       0.046950
     60 H17         -5.5800    -2.6320     0.6430 hc         1 BJY       0.054200
     61 H18         -6.6410    -2.2690     2.0090 hc         1 BJY       0.054200
     62 H19         -6.4560     0.1730     1.5560 hc         1 BJY       0.053700
     63 H20         -4.7340    -0.6160    -0.8620 hc         1 BJY       0.054200
     64 H21         -5.2070     1.0220    -0.4280 hc         1 BJY       0.054200
     65 H22         -2.9000     0.5270     0.3230 h1         1 BJY       0.046950
     66 H23         -3.9480     0.8920     1.6980 h1         1 BJY       0.046950
     67 H24         -7.6390    -2.8650    -0.4570 h4         1 BJY       0.256000
     68 H25        -10.8350     0.1370    -2.8800 ha         1 BJY       0.178000
     69 H26        -10.6850     2.6680    -2.6410 h4         1 BJY       0.195000
     70 H27         -7.3520     2.2810     0.0050 h4         1 BJY       0.195000
     71 H28          5.2500     0.7900    -1.0560 ha         1 BJY       0.124500
     72 H29          6.6200     2.7810    -1.1940 ha         1 BJY       0.131000
     73 H30          4.6650     4.3960     2.3090 ha         1 BJY       0.131000
     74 H31          3.3020     2.3780     2.4830 ha         1 BJY       0.124500
     75 H33         -8.3590     4.2820    -1.9480 ho         1 BJY       0.492000
     76 H34         -2.0970    -1.7450     0.3130 ho         1 BJY       0.467000
     77 H32         -9.6120    -2.2280    -2.0150 hn         1 BJY       0.390000
@<TRIPOS>BOND
     1     1     5 1   
     2     1    23 1   
     3     1    33 2   
     4     2     3 1   
     5     2    34 1   
     6     2    44 1   
     7     2    45 1   
     8     3    10 1   
     9     3    42 1   
    10     3    46 1   
    11     4     5 1   
    12     4    38 1   
    13     4    47 1   
    14     4    48 1   
    15     5     7 2   
    16     6    43 1   
    17     6    49 1   
    18     6    50 1   
    19     6    51 1   
    20     7     8 1   
    21     7    34 1   
    22     8     9 1   
    23     8    52 1   
    24     8    53 1   
    25     9    38 1   
    26     9    54 1   
    27     9    55 1   
    28    10    35 1   
    29    10    56 1   
    30    10    57 1   
    31    11    12 1   
    32    11    35 1   
    33    11    58 1   
    34    11    59 1   
    35    12    13 1   
    36    12    60 1   
    37    12    61 1   
    38    13    14 1   
    39    13    16 1   
    40    13    62 1   
    41    14    15 1   
    42    14    63 1   
    43    14    64 1   
    44    15    35 1   
    45    15    65 1   
    46    15    66 1   
    47    16    17 2   
    48    16    22 1   
    49    17    37 1   
    50    17    67 1   
    51    18    19 ar  
    52    18    22 ar  
    53    18    37 1   
    54    19    20 ar  
    55    19    68 1   
    56    20    36 1   
    57    20    69 1   
    58    21    22 ar  
    59    21    36 2   
    60    21    70 1   
    61    23    24 ar  
    62    23    28 ar  
    63    24    25 ar  
    64    24    71 1   
    65    25    26 ar  
    66    25    72 1   
    67    26    27 ar  
    68    26    29 1   
    69    27    28 ar  
    70    27    73 1   
    71    28    74 1   
    72    29    30 1   
    73    29    31 1   
    74    29    32 1   
    75    33    34 1   
    76    36    39 1   
    77    37    77 1   
    78    38    43 1   
    79    39    75 1   
    80    40    43 2   
    81    41    43 2   
    82    42    76 1   
@<TRIPOS>SUBSTRUCTURE
     1 BJY         1 TEMP              0 ****  ****    0 ROOT
