@<TRIPOS>MOLECULE
BJZ
   55    59     1     0     0
SMALL
No Charge or Current Charge


@<TRIPOS>ATOM
      1 C1          -4.5680     2.4080     0.8930 ca         1 BJZ       0.126500
      2 C2          -3.3920     2.2470     0.1410 ca         1 BJZ      -0.086000
      3 C4          -2.5950     1.0930     0.3030 ca         1 BJZ      -0.009000
      4 C5          -2.9990     0.1080     1.2280 ca         1 BJZ      -0.086000
      5 C7          -4.1760     0.2730     1.9750 ca         1 BJZ       0.126500
      6 C8          -4.9630     1.4230     1.8100 ca         1 BJZ      -0.096000
      7 Cl10        -4.6690    -0.9710     3.1160 cl         1 BJZ      -0.189000
      8 N11         -1.3930     0.9120    -0.4690 n          1 BJZ      -0.232000
      9 C12         -1.3200     1.1410    -1.8460 c          1 BJZ       0.627000
     10 N13         -0.0330     0.8420    -2.2780 n          1 BJZ      -0.413800
     11 C14          0.7470     0.3110    -1.1370 c5         1 BJZ       0.013400
     12 C15         -0.1820     0.4770     0.0950 c          1 BJZ       0.575000
     13 O16          0.0460     0.3210     1.2890 o          1 BJZ      -0.464000
     14 C17          2.1050     1.0470    -0.9660 c5         1 BJZ       0.264800
     15 N20          2.9790    -0.0350    -0.4130 nh         1 BJZ      -0.822300
     16 C21          2.3020    -1.3630    -0.3770 c5         1 BJZ       0.255800
     17 C24          1.1680    -1.1620    -1.4290 c5         1 BJZ      -0.042400
     18 C26         -0.0460    -2.0980    -1.2340 ca         1 BJZ      -0.057300
     19 C27         -0.8510    -2.3680    -2.3610 ca         1 BJZ      -0.105000
     20 C29         -1.9990    -3.1710    -2.2630 ca         1 BJZ      -0.074500
     21 C31         -2.3670    -3.7280    -1.0260 ca         1 BJZ      -0.025000
     22 C32         -1.5740    -3.4750     0.1060 ca         1 BJZ      -0.074500
     23 C34         -0.4260    -2.6700     0.0050 ca         1 BJZ      -0.105000
     24 C36         -3.5450    -4.5450    -0.9200 cg         1 BJZ       0.329000
     25 N37         -4.5060    -5.2020    -0.8270 n1         1 BJZ      -0.460000
     26 C38          4.2600     0.1960     0.1090 ca         1 BJZ       0.587900
     27 N39          4.7350     1.4340    -0.0960 nb         1 BJZ      -0.780000
     28 C40          5.9670     1.7310     0.3800 ca         1 BJZ       0.384900
     29 C42          6.7700     0.8120     1.0750 ca         1 BJZ      -0.211600
     30 C43          6.2650    -0.4850     1.2890 ca         1 BJZ      -0.022000
     31 C45          4.9880    -0.7910     0.7950 ca         1 BJZ      -0.253000
     32 C47          8.1260     1.2270     1.5680 c          1 BJZ       0.720600
     33 O48          8.8010     0.4050     2.1700 o          1 BJZ      -0.721500
     34 O49          8.5030     2.3680     1.3500 o          1 BJZ      -0.721500
     35 C51          0.3840     0.9900    -3.6880 c3         1 BJZ       0.107300
     36 O55         -2.2270     1.5300    -2.5660 o          1 BJZ      -0.541000
     37 Cl56        -5.5490     3.8530     0.6840 cl         1 BJZ      -0.189000
     38 H2          -3.1000     3.0260    -0.5580 ha         1 BJZ       0.146000
     39 H5          -2.4110    -0.7960     1.3630 ha         1 BJZ       0.146000
     40 H8          -5.8730     1.5490     2.3890 ha         1 BJZ       0.142000
     41 H17          2.4980     1.4070    -1.9260 h1         1 BJZ       0.066200
     42 H17A         2.0150     1.9090    -0.2890 h1         1 BJZ       0.066200
     43 H21          2.9660    -2.1860    -0.6740 h1         1 BJZ       0.051700
     44 H21A         1.9420    -1.5600     0.6390 h1         1 BJZ       0.051700
     45 H24          1.5950    -1.2640    -2.4340 hc         1 BJZ       0.072700
     46 H27         -0.5900    -1.9410    -3.3270 ha         1 BJZ       0.129500
     47 H29         -2.6030    -3.3570    -3.1490 ha         1 BJZ       0.128000
     48 H32         -1.8490    -3.8980     1.0710 ha         1 BJZ       0.128000
     49 H34          0.1390    -2.4920     0.9140 ha         1 BJZ       0.129500
     50 H40          6.3080     2.7480     0.1870 h4         1 BJZ       0.032100
     51 H43          6.8420    -1.2380     1.8240 ha         1 BJZ       0.130000
     52 H45          4.5790    -1.7820     0.9540 ha         1 BJZ       0.095000
     53 H51         -0.2830     0.4050    -4.3340 h1         1 BJZ       0.049033
     54 H51A         0.3300     2.0460    -3.9790 h1         1 BJZ       0.049033
     55 H51B         1.4120     0.6340    -3.8230 h1         1 BJZ       0.049033
@<TRIPOS>BOND
     1     1     2 ar  
     2     1     6 ar  
     3     1    37 1   
     4     2     3 ar  
     5     2    38 1   
     6     3     4 ar  
     7     3     8 1   
     8     4     5 ar  
     9     4    39 1   
    10     5     6 ar  
    11     5     7 1   
    12     6    40 1   
    13     8     9 1   
    14     8    12 1   
    15     9    10 1   
    16     9    36 2   
    17    10    11 1   
    18    10    35 1   
    19    11    12 1   
    20    11    14 1   
    21    11    17 1   
    22    12    13 2   
    23    14    15 1   
    24    14    41 1   
    25    14    42 1   
    26    15    16 1   
    27    15    26 1   
    28    16    17 1   
    29    16    43 1   
    30    16    44 1   
    31    17    18 1   
    32    17    45 1   
    33    18    19 ar  
    34    18    23 ar  
    35    19    20 ar  
    36    19    46 1   
    37    20    21 ar  
    38    20    47 1   
    39    21    22 ar  
    40    21    24 1   
    41    22    23 ar  
    42    22    48 1   
    43    23    49 1   
    44    24    25 3   
    45    26    27 ar  
    46    26    31 ar  
    47    27    28 ar  
    48    28    29 ar  
    49    28    50 1   
    50    29    30 ar  
    51    29    32 1   
    52    30    31 ar  
    53    30    51 1   
    54    31    52 1   
    55    32    33 1   
    56    32    34 1   
    57    35    53 1   
    58    35    54 1   
    59    35    55 1   
@<TRIPOS>SUBSTRUCTURE
     1 BJZ         1 TEMP              0 ****  ****    0 ROOT
