@<TRIPOS>MOLECULE
BJZ
   55    59     1     0     0
SMALL
bcc


@<TRIPOS>ATOM
      1 C1          -4.0180     2.4130     1.4340 ca         1 BJZ       0.034900
      2 C2          -2.8640     2.3110     0.6730 ca         1 BJZ      -0.104000
      3 C4          -2.4920     1.0590     0.2120 ca         1 BJZ       0.083600
      4 C5          -3.2420    -0.0710     0.4960 ca         1 BJZ      -0.104000
      5 C7          -4.3860     0.0680     1.2620 ca         1 BJZ       0.034900
      6 C8          -4.7910     1.3040     1.7410 ca         1 BJZ      -0.114000
      7 CL10        -5.3270    -1.3330     1.6250 cl         1 BJZ      -0.097400
      8 N11         -1.3220     0.9060    -0.5650 n          1 BJZ      -0.458600
      9 C12         -1.3010     1.0630    -1.9600 c          1 BJZ       0.836500
     10 N13         -0.0620     0.7240    -2.3700 n          1 BJZ      -0.480800
     11 C14          0.7740     0.2710    -1.2890 c5         1 BJZ       0.013400
     12 C15         -0.1050     0.5220    -0.0770 c          1 BJZ       0.717500
     13 O16          0.1880     0.3800     1.0820 o          1 BJZ      -0.539500
     14 C17          2.1390     0.9480    -1.1750 c5         1 BJZ       0.264800
     15 N20          2.9520    -0.0480    -0.5210 nh         1 BJZ      -0.822300
     16 C21          2.3390    -1.3550    -0.4360 c5         1 BJZ       0.255800
     17 C24          1.1350    -1.2420    -1.3640 c5         1 BJZ      -0.042400
     18 C26         -0.0480    -2.1370    -1.1210 ca         1 BJZ      -0.057300
     19 C27         -0.9300    -2.3610    -2.1810 ca         1 BJZ      -0.123000
     20 C29         -2.0910    -3.0910    -2.0070 ca         1 BJZ      -0.092500
     21 C31         -2.3810    -3.6260    -0.7520 ca         1 BJZ      -0.025000
     22 C32         -1.5000    -3.4340     0.3110 ca         1 BJZ      -0.092500
     23 C34         -0.3480    -2.6900     0.1230 ca         1 BJZ      -0.123000
     24 C36         -3.5840    -4.3680    -0.5540 cg         1 BJZ       0.239800
     25 N37         -4.5560    -4.9650    -0.3930 n1         1 BJZ      -0.370800
     26 C38          4.1500     0.2570     0.0370 ca         1 BJZ       0.653200
     27 N39          4.5930     1.5020    -0.1460 nb         1 BJZ      -0.780000
     28 C40          5.7610     1.8430     0.3850 ca         1 BJZ       0.450200
     29 C42          6.5750     0.9970     1.1230 ca         1 BJZ      -0.276900
     30 C43          6.0970    -0.3020     1.3060 ca         1 BJZ      -0.040000
     31 C45          4.8890    -0.6910     0.7720 ca         1 BJZ      -0.336300
     32 C47          7.8970     1.4590     1.6950 c          1 BJZ       0.931200
     33 O48          8.5470     0.6190     2.3480 o          1 BJZ      -0.826800
     34 O49          8.2260     2.6410     1.4640 o          1 BJZ      -0.826800
     35 C51          0.3770     0.8160    -3.7410 c3         1 BJZ       0.107300
     36 O55         -2.2430     1.4370    -2.6160 o          1 BJZ      -0.616500
     37 CL56        -4.5090     3.9620     2.0150 cl         1 BJZ      -0.097400
     38 H2          -2.2650     3.1820     0.4440 ha         1 BJZ       0.164000
     39 H5          -2.9340    -1.0380     0.1230 ha         1 BJZ       0.164000
     40 H8          -5.6870     1.4010     2.3380 ha         1 BJZ       0.160000
     41 H17          2.5220     1.2000    -2.1690 h1         1 BJZ       0.066200
     42 H17A         2.0900     1.8780    -0.6050 h1         1 BJZ       0.066200
     43 H21          3.0120    -2.1410    -0.7850 h1         1 BJZ       0.051700
     44 H21A         2.0650    -1.5930     0.5950 h1         1 BJZ       0.051700
     45 H24          1.4840    -1.4180    -2.3860 hc         1 BJZ       0.072700
     46 H27         -0.7030    -1.9710    -3.1650 ha         1 BJZ       0.147500
     47 H29         -2.7660    -3.2480    -2.8370 ha         1 BJZ       0.146000
     48 H32         -1.7200    -3.8550     1.2830 ha         1 BJZ       0.146000
     49 H34          0.3120    -2.5500     0.9670 ha         1 BJZ       0.147500
     50 H40          6.0760     2.8660     0.2080 h4         1 BJZ       0.032100
     51 H43          6.6790    -1.0140     1.8790 ha         1 BJZ       0.148000
     52 H45          4.5220    -1.6970     0.9220 ha         1 BJZ       0.113000
     53 H51         -0.4890     0.9160    -4.3890 h1         1 BJZ       0.049033
     54 H51A         1.0310     1.6740    -3.8950 h1         1 BJZ       0.049033
     55 H51B         0.9130    -0.0860    -4.0330 h1         1 BJZ       0.049033
@<TRIPOS>BOND
     1     1     2 ar  
     2     1     6 ar  
     3     1    37 1   
     4     2     3 ar  
     5     2    38 1   
     6     3     4 ar  
     7     3     8 1   
     8     4     5 ar  
     9     4    39 1   
    10     5     6 ar  
    11     5     7 1   
    12     6    40 1   
    13     8     9 1   
    14     8    12 1   
    15     9    10 1   
    16     9    36 2   
    17    10    11 1   
    18    10    35 1   
    19    11    12 1   
    20    11    14 1   
    21    11    17 1   
    22    12    13 2   
    23    14    15 1   
    24    14    41 1   
    25    14    42 1   
    26    15    16 1   
    27    15    26 1   
    28    16    17 1   
    29    16    43 1   
    30    16    44 1   
    31    17    18 1   
    32    17    45 1   
    33    18    19 ar  
    34    18    23 ar  
    35    19    20 ar  
    36    19    46 1   
    37    20    21 ar  
    38    20    47 1   
    39    21    22 ar  
    40    21    24 1   
    41    22    23 ar  
    42    22    48 1   
    43    23    49 1   
    44    24    25 3   
    45    26    27 ar  
    46    26    31 ar  
    47    27    28 ar  
    48    28    29 ar  
    49    28    50 1   
    50    29    30 ar  
    51    29    32 1   
    52    30    31 ar  
    53    30    51 1   
    54    31    52 1   
    55    32    33 1   
    56    32    34 1   
    57    35    53 1   
    58    35    54 1   
    59    35    55 1   
@<TRIPOS>SUBSTRUCTURE
     1 BJZ         1 TEMP              0 ****  ****    0 ROOT
