@<TRIPOS>MOLECULE
BK0
   25    26     1     0     0
SMALL
abcg2


@<TRIPOS>ATOM
      1 C01        185.5280   202.9880   191.5410 ca         1 BK0      -0.077000
      2 C02        185.2020   204.3300   191.4640 ca         1 BK0      -0.145000
      3 C03        184.2320   204.7210   190.5480 ca         1 BK0       0.338900
      4 C05        183.9090   202.5840   189.8350 ca         1 BK0       0.288500
      5 C06        184.8670   202.0910   190.7140 ca         1 BK0      -0.144000
      6 C07        183.1730   201.7010   188.8640 c          1 BK0       0.515600
      7 C10        182.2760   199.3900   188.6820 ca         1 BK0      -0.007000
      8 C11        181.8540   199.4310   187.3530 ca         1 BK0      -0.130000
      9 C12        181.2550   198.3040   186.8090 ca         1 BK0       0.147000
     10 C13        181.0540   197.1420   187.5330 ca         1 BK0      -0.132000
     11 C14        181.4800   197.1190   188.8540 ca         1 BK0      -0.073000
     12 C15        182.0840   198.2220   189.4260 ca         1 BK0      -0.171000
     13 N04        183.6060   203.8750   189.7470 nb         1 BK0      -0.618000
     14 N09        182.8940   200.4590   189.3350 ns         1 BK0      -0.147000
     15 O08        182.8670   202.1070   187.7610 o          1 BK0      -0.534100
     16 CL16       180.7400   198.3660   185.1540 cl         1 BK0      -0.199000
     17 H1         186.2870   202.6390   192.2280 ha         1 BK0       0.124000
     18 H2         185.6880   205.0650   192.0910 ha         1 BK0       0.129000
     19 H3         183.9550   205.7660   190.4590 h4         1 BK0       0.028100
     20 H4         185.1210   201.0400   190.7440 ha         1 BK0       0.125000
     21 H5         181.9830   200.3140   186.7500 ha         1 BK0       0.165000
     22 H6         180.5820   196.2790   187.0840 ha         1 BK0       0.132000
     23 H7         181.3380   196.2240   189.4450 ha         1 BK0       0.117000
     24 H8         182.4110   198.1800   190.4580 ha         1 BK0       0.112000
     25 H9         183.1200   200.2830   190.3030 hn         1 BK0       0.153000
@<TRIPOS>BOND
     1     1     2 ar  
     2     1     5 ar  
     3     1    17 1   
     4     2     3 ar  
     5     2    18 1   
     6     3    13 ar  
     7     3    19 1   
     8     4     5 ar  
     9     4     6 1   
    10     4    13 ar  
    11     5    20 1   
    12     6    14 1   
    13     6    15 2   
    14     7     8 ar  
    15     7    12 ar  
    16     7    14 1   
    17     8     9 ar  
    18     8    21 1   
    19     9    10 ar  
    20     9    16 1   
    21    10    11 ar  
    22    10    22 1   
    23    11    12 ar  
    24    11    23 1   
    25    12    24 1   
    26    14    25 1   
@<TRIPOS>SUBSTRUCTURE
     1 BK0         1 TEMP              0 ****  ****    0 ROOT
