@<TRIPOS>MOLECULE
BK0
   25    26     1     0     0
SMALL
No Charge or Current Charge


@<TRIPOS>ATOM
      1 C01        185.2450   202.9970   191.8130 ca         1 BK0      -0.077000
      2 C02        185.3290   204.3600   191.4990 ca         1 BK0      -0.145000
      3 C03        184.6680   204.8370   190.3580 ca         1 BK0       0.338900
      4 C05        183.8470   202.7030   189.8250 ca         1 BK0       0.288500
      5 C06        184.4960   202.1610   190.9670 ca         1 BK0      -0.144000
      6 C07        183.0180   201.8190   188.8760 c          1 BK0       0.515600
      7 C10        182.3070   199.3550   188.6060 ca         1 BK0      -0.007000
      8 C11        181.6820   199.4030   187.3390 ca         1 BK0      -0.130000
      9 C12        181.0810   198.2530   186.8010 ca         1 BK0       0.147000
     10 C13        181.0970   197.0450   187.5130 ca         1 BK0      -0.132000
     11 C14        181.7190   196.9840   188.7700 ca         1 BK0      -0.073000
     12 C15        182.3210   198.1340   189.3090 ca         1 BK0      -0.171000
     13 N04        183.9450   204.0380   189.5400 nb         1 BK0      -0.618000
     14 N09        182.9410   200.4700   189.2210 ns         1 BK0      -0.147000
     15 O08        182.4560   202.2770   187.8820 o          1 BK0      -0.534100
     16 Cl16       180.3080   198.3270   185.2230 cl         1 BK0      -0.199000
     17 H1         185.7480   202.5960   192.6920 ha         1 BK0       0.124000
     18 H2         185.8970   205.0430   192.1250 ha         1 BK0       0.129000
     19 H3         184.7160   205.8910   190.0890 h4         1 BK0       0.028100
     20 H4         184.4310   201.1040   191.2100 ha         1 BK0       0.125000
     21 H5         181.6550   200.3140   186.7510 ha         1 BK0       0.165000
     22 H6         180.6310   196.1580   187.0910 ha         1 BK0       0.132000
     23 H7         181.7360   196.0480   189.3250 ha         1 BK0       0.117000
     24 H8         182.8000   198.0740   190.2840 ha         1 BK0       0.112000
     25 H9         183.4310   200.2300   190.0730 hn         1 BK0       0.153000
@<TRIPOS>BOND
     1     1     2 ar  
     2     1     5 ar  
     3     1    17 1   
     4     2     3 ar  
     5     2    18 1   
     6     3    13 ar  
     7     3    19 1   
     8     4     5 ar  
     9     4     6 1   
    10     4    13 ar  
    11     5    20 1   
    12     6    14 1   
    13     6    15 2   
    14     7     8 ar  
    15     7    12 ar  
    16     7    14 1   
    17     8     9 ar  
    18     8    21 1   
    19     9    10 ar  
    20     9    16 1   
    21    10    11 ar  
    22    10    22 1   
    23    11    12 ar  
    24    11    23 1   
    25    12    24 1   
    26    14    25 1   
@<TRIPOS>SUBSTRUCTURE
     1 BK0         1 TEMP              0 ****  ****    0 ROOT
