@<TRIPOS>MOLECULE
BK1
   43    46     1     0     0
SMALL
No Charge or Current Charge


@<TRIPOS>ATOM
      1 N1          -2.3260     1.8740     1.5950 nb         1 BK1      -0.317000
      2 C2          -3.1610     0.8590     1.9220 ca         1 BK1       0.197900
      3 N3          -3.1930    -0.3710     1.3600 nb         1 BK1      -0.239000
      4 C4          -2.2900    -0.5880     0.3830 ca         1 BK1       0.158500
      5 C5          -1.4050     0.3790    -0.0020 ca         1 BK1      -0.380900
      6 C6          -1.4430     1.6230     0.6200 ca         1 BK1       0.459900
      7 CAA         -3.5440    -3.2840    -1.6340 c3         1 BK1      -0.103600
      8 CAB         -1.8400    -4.1310     0.0770 c3         1 BK1      -0.103600
      9 NAC         -0.6270     2.6460     0.3080 nv         1 BK1      -1.065900
     10 CAD          3.9810    -0.9690     1.8440 ca         1 BK1      -0.101000
     11 CAE          3.0000    -1.6680     1.1270 ca         1 BK1      -0.108000
     12 CAF          2.9700     3.0870    -0.6540 ca         1 BK1      -0.114000
     13 CAG          1.9650     2.4160    -1.3640 ca         1 BK1      -0.134000
     14 CAH          4.2050     0.3900     1.5750 ca         1 BK1      -0.103000
     15 CAI          3.7010     2.4110     0.3310 ca         1 BK1      -0.094000
     16 CAJ          2.2340    -1.0110     0.1500 ca         1 BK1      -0.093000
     17 NAO         -1.0100    -1.4410    -1.3380 nc         1 BK1      -0.542100
     18 CAQ          1.6640     1.0640    -1.0950 ca         1 BK1      -0.063300
     19 CAR         -0.6100    -0.1890    -1.0720 cd         1 BK1       0.392900
     20 CAS          3.4430     1.0550     0.5950 ca         1 BK1      -0.036000
     21 CAT          2.4330     0.3640    -0.1230 ca         1 BK1      -0.025000
     22 NAX         -2.0380    -1.6850    -0.4250 na         1 BK1      -0.019100
     23 H2          -3.8820     1.0540     2.7140 h5         1 BK1       0.044100
     24 HAA         -4.1380    -4.1980    -1.5180 hc         1 BK1       0.047367
     25 HAAA        -4.2270    -2.4630    -1.8820 hc         1 BK1       0.047367
     26 HAAB        -2.8550    -3.4250    -2.4750 hc         1 BK1       0.047367
     27 HAB         -2.4130    -5.0550     0.2140 hc         1 BK1       0.047367
     28 HABA        -1.0740    -4.3090    -0.6870 hc         1 BK1       0.047367
     29 HABB        -1.3340    -3.9010     1.0230 hc         1 BK1       0.047367
     30 HNAC         0.2580     2.4150    -0.1330 hn         1 BK1       0.502500
     31 HNAA        -0.6090     3.4350     0.9470 hn         1 BK1       0.502500
     32 HAE          2.8340    -2.7250     1.3260 ha         1 BK1       0.114000
     33 HAF          3.1830     4.1330    -0.8660 ha         1 BK1       0.115000
     34 HAG          1.4080     2.9620    -2.1250 ha         1 BK1       0.112000
     35 HAH          4.9760     0.9240     2.1260 ha         1 BK1       0.113000
     36 HAI          4.4780     2.9400     0.8800 ha         1 BK1       0.116000
     37 HAJ          1.5020    -1.5950    -0.3960 ha         1 BK1       0.129000
     38 CAL          0.5190     0.4130    -1.8840 c3         1 BK1      -0.048400
     39 CAW         -2.7710    -2.9690    -0.3340 c3         1 BK1       0.112300
     40 HAD          4.5730    -1.4800     2.6000 ha         1 BK1       0.114000
     41 HAL          0.0760     1.1410    -2.5720 hc         1 BK1       0.068700
     42 HALA         0.9480    -0.3570    -2.5360 hc         1 BK1       0.068700
     43 HAW         -3.5180    -2.8630     0.4630 h1         1 BK1       0.083700
@<TRIPOS>BOND
     1     1     2 ar  
     2     1     6 ar  
     3     2     3 ar  
     4     2    23 1   
     5     3     4 ar  
     6     4     5 ar  
     7     4    22 1   
     8     5     6 ar  
     9     5    19 1   
    10     6     9 1   
    11     7    24 1   
    12     7    25 1   
    13     7    26 1   
    14     7    39 1   
    15     8    27 1   
    16     8    28 1   
    17     8    29 1   
    18     8    39 1   
    19     9    30 1   
    20     9    31 1   
    21    10    11 ar  
    22    10    14 ar  
    23    10    40 1   
    24    11    16 ar  
    25    11    32 1   
    26    12    13 ar  
    27    12    15 ar  
    28    12    33 1   
    29    13    18 ar  
    30    13    34 1   
    31    14    20 ar  
    32    14    35 1   
    33    15    20 ar  
    34    15    36 1   
    35    16    21 ar  
    36    16    37 1   
    37    17    19 2   
    38    17    22 1   
    39    18    21 ar  
    40    18    38 1   
    41    19    38 1   
    42    20    21 ar  
    43    22    39 1   
    44    38    41 1   
    45    38    42 1   
    46    39    43 1   
@<TRIPOS>SUBSTRUCTURE
     1 BK1         1 TEMP              0 ****  ****    0 ROOT
