@<TRIPOS>MOLECULE
BK1
   43    46     1     0     0
SMALL
bcc


@<TRIPOS>ATOM
      1 N1          -2.5030     1.8400     1.6010 nb         1 BK1      -0.843000
      2 C2          -3.2910     0.7990     1.8630 ca         1 BK1       0.723900
      3 N3          -3.2700    -0.4000     1.3220 nb         1 BK1      -0.765000
      4 C4          -2.3150    -0.5180     0.3940 ca         1 BK1       0.486800
      5 C5          -1.4090     0.4750     0.0010 ca         1 BK1      -0.511500
      6 C6          -1.5460     1.7130     0.6760 ca         1 BK1       0.788200
      7 CAA         -3.3530    -3.2290    -1.6270 c3         1 BK1      -0.103600
      8 CAB         -1.6920    -3.9800     0.1250 c3         1 BK1      -0.103600
      9 NAC         -0.7850     2.7800     0.4320 nv         1 BK1      -0.955500
     10 CAD          3.9520    -1.0690     1.7790 ca         1 BK1      -0.119000
     11 CAE          2.9350    -1.7400     1.0730 ca         1 BK1      -0.126000
     12 CAF          3.0200     2.9780    -0.6890 ca         1 BK1      -0.132000
     13 CAG          1.9750     2.3220    -1.3710 ca         1 BK1      -0.152000
     14 CAH          4.2060     0.2490     1.5200 ca         1 BK1      -0.121000
     15 CAI          3.7360     2.3120     0.2640 ca         1 BK1      -0.112000
     16 CAJ          2.1820    -1.0800     0.1390 ca         1 BK1      -0.111000
     17 NAO         -1.0270    -1.3780    -1.1860 nc         1 BK1      -0.542100
     18 CAQ          1.6440     1.0160    -1.1060 ca         1 BK1      -0.063300
     19 CAR         -0.6200    -0.1450    -1.0090 cd         1 BK1       0.392900
     20 CAS          3.4520     0.9570     0.5540 ca         1 BK1      -0.036000
     21 CAT          2.4070     0.2900    -0.1420 ca         1 BK1      -0.025000
     22 NAX         -2.0450    -1.6070    -0.3450 na         1 BK1       0.010200
     23 H2          -4.0450     0.9690     2.6240 h5         1 BK1       0.044100
     24 HAA         -3.8760    -4.1830    -1.5590 hc         1 BK1       0.047367
     25 HAAA        -4.0810    -2.4650    -1.9000 hc         1 BK1       0.047367
     26 HAAB        -2.6160    -3.3070    -2.4260 hc         1 BK1       0.047367
     27 HAB         -2.1970    -4.9420     0.2110 hc         1 BK1       0.047367
     28 HABA        -0.8930    -4.0810    -0.6090 hc         1 BK1       0.047367
     29 HABB        -1.2450    -3.7450     1.0910 hc         1 BK1       0.047367
     30 HNAC         0.0380     2.7260    -0.1430 hn         1 BK1       0.447300
     31 HNAA        -0.8990     3.6000     1.0050 hn         1 BK1       0.447300
     32 HAE          2.7480    -2.7880     1.2700 ha         1 BK1       0.132000
     33 HAF          3.2420     4.0110    -0.9220 ha         1 BK1       0.133000
     34 HAG          1.4160     2.8700    -2.1220 ha         1 BK1       0.130000
     35 HAH          4.9960     0.7690     2.0470 ha         1 BK1       0.131000
     36 HAI          4.5340     2.8100     0.8010 ha         1 BK1       0.134000
     37 HAJ          1.4140    -1.6240    -0.3920 ha         1 BK1       0.147000
     38 CAL          0.5010     0.3790    -1.8550 c3         1 BK1      -0.048400
     39 CAW         -2.6890    -2.9100    -0.2960 c3         1 BK1       0.083000
     40 HAD          4.5350    -1.6030     2.5190 ha         1 BK1       0.132000
     41 HAL          0.1010     1.1110    -2.5620 hc         1 BK1       0.068700
     42 HALA         0.8650    -0.4560    -2.4600 hc         1 BK1       0.068700
     43 HAW         -3.4580    -2.8160     0.4730 h1         1 BK1       0.083700
@<TRIPOS>BOND
     1     1     2 ar  
     2     1     6 ar  
     3     2     3 ar  
     4     2    23 1   
     5     3     4 ar  
     6     4     5 ar  
     7     4    22 1   
     8     5     6 ar  
     9     5    19 1   
    10     6     9 1   
    11     7    24 1   
    12     7    25 1   
    13     7    26 1   
    14     7    39 1   
    15     8    27 1   
    16     8    28 1   
    17     8    29 1   
    18     8    39 1   
    19     9    30 1   
    20     9    31 1   
    21    10    11 ar  
    22    10    14 ar  
    23    10    40 1   
    24    11    16 ar  
    25    11    32 1   
    26    12    13 ar  
    27    12    15 ar  
    28    12    33 1   
    29    13    18 ar  
    30    13    34 1   
    31    14    20 ar  
    32    14    35 1   
    33    15    20 ar  
    34    15    36 1   
    35    16    21 ar  
    36    16    37 1   
    37    17    19 2   
    38    17    22 1   
    39    18    21 ar  
    40    18    38 1   
    41    19    38 1   
    42    20    21 ar  
    43    22    39 1   
    44    38    41 1   
    45    38    42 1   
    46    39    43 1   
@<TRIPOS>SUBSTRUCTURE
     1 BK1         1 TEMP              0 ****  ****    0 ROOT
