@<TRIPOS>MOLECULE
BK2
   43    46     1     0     0
SMALL
No Charge or Current Charge


@<TRIPOS>ATOM
      1 N1           2.3200    -3.1650    -0.4760 nb         1 BK2      -0.314000
      2 C2           3.5110    -2.5250    -0.4060 ca         1 BK2       0.193900
      3 N3           3.7050    -1.2020    -0.2010 nb         1 BK2      -0.235000
      4 C4           2.5910    -0.4610    -0.0220 ca         1 BK2       0.157500
      5 C5           1.3530    -1.0430    -0.0360 ca         1 BK2      -0.379900
      6 C6           1.2320    -2.4050    -0.2960 ca         1 BK2       0.455900
      7 CAA          4.2500     1.9610    -1.1480 c3         1 BK2      -0.101100
      8 CAB          4.4380     1.6510     1.3650 c3         1 BK2      -0.101100
      9 CAC          2.8750     3.3690     0.4130 c3         1 BK2      -0.101100
     10 NAD          0.0530    -3.0440    -0.4340 nv         1 BK2      -1.068900
     11 CAE         -6.1000     0.5410    -0.0320 ca         1 BK2      -0.103000
     12 CAF         -5.5320     1.5000    -0.8890 ca         1 BK2      -0.108000
     13 CAH         -1.6410    -1.0360     1.1470 ca         1 BK2      -0.109000
     14 CAI         -5.2710    -0.3350     0.6910 ca         1 BK2      -0.101000
     15 CAJ         -4.1360     1.5840    -1.0250 ca         1 BK2      -0.093000
     16 CAK         -3.0370    -1.1210     1.2850 ca         1 BK2      -0.102000
     17 CAL         -1.9030     0.7870    -0.4390 ca         1 BK2      -0.065000
     18 NAO          1.0140     1.2120     0.2260 nc         1 BK2      -0.518100
     19 CAQ         -1.0620    -0.1030     0.2620 ca         1 BK2      -0.099900
     20 CAR          0.4030     0.0260     0.1510 cd         1 BK2       0.428500
     21 CAS         -3.8720    -0.2550     0.5560 ca         1 BK2      -0.034000
     22 CAT         -3.3020     0.7070    -0.3050 ca         1 BK2      -0.040000
     23 NAW          2.3810     0.9090     0.1440 na         1 BK2      -0.017100
     24 CAX          3.4660     1.9460     0.1910 c3         1 BK2       0.135000
     25 H2           4.4030    -3.1330    -0.5490 h5         1 BK2       0.044100
     26 HAA          5.0060     2.7550    -1.1500 hc         1 BK2       0.050367
     27 HAAA         4.7700     1.0130    -1.3240 hc         1 BK2       0.050367
     28 HAAB         3.5720     2.1360    -1.9920 hc         1 BK2       0.050367
     29 HAB          5.1970     2.4380     1.4510 hc         1 BK2       0.050367
     30 HABA         3.8940     1.5990     2.3150 hc         1 BK2       0.050367
     31 HABB         4.9660     0.7010     1.2260 hc         1 BK2       0.050367
     32 HAC          2.1960     3.6460    -0.4030 hc         1 BK2       0.050367
     33 HACA         2.3180     3.4220     1.3560 hc         1 BK2       0.050367
     34 HACB         3.6710     4.1230     0.4540 hc         1 BK2       0.050367
     35 HNAD         0.0590    -3.9690    -0.8550 hn         1 BK2       0.501500
     36 HNAA        -0.7910    -2.4910    -0.5480 hn         1 BK2       0.501500
     37 HAE         -7.1800     0.4780     0.0740 ha         1 BK2       0.114000
     38 HAF         -6.1750     2.1780    -1.4470 ha         1 BK2       0.114000
     39 HAH         -1.0060    -1.6920     1.7400 ha         1 BK2       0.121000
     40 HAI         -5.7170    -1.0720     1.3550 ha         1 BK2       0.114000
     41 HAJ         -3.7050     2.3290    -1.6910 ha         1 BK2       0.116000
     42 HAK         -3.4660    -1.8520     1.9650 ha         1 BK2       0.115000
     43 HAL         -1.4650     1.5340    -1.0970 ha         1 BK2       0.127000
@<TRIPOS>BOND
     1     1     2 ar  
     2     1     6 ar  
     3     2     3 ar  
     4     2    25 1   
     5     3     4 ar  
     6     4     5 ar  
     7     4    23 1   
     8     5     6 ar  
     9     5    20 1   
    10     6    10 1   
    11     7    24 1   
    12     7    26 1   
    13     7    27 1   
    14     7    28 1   
    15     8    24 1   
    16     8    29 1   
    17     8    30 1   
    18     8    31 1   
    19     9    24 1   
    20     9    32 1   
    21     9    33 1   
    22     9    34 1   
    23    10    35 1   
    24    10    36 1   
    25    11    12 ar  
    26    11    14 ar  
    27    11    37 1   
    28    12    15 ar  
    29    12    38 1   
    30    13    16 ar  
    31    13    19 ar  
    32    13    39 1   
    33    14    21 ar  
    34    14    40 1   
    35    15    22 ar  
    36    15    41 1   
    37    16    21 ar  
    38    16    42 1   
    39    17    19 ar  
    40    17    22 ar  
    41    17    43 1   
    42    18    20 2   
    43    18    23 1   
    44    19    20 1   
    45    21    22 ar  
    46    23    24 1   
@<TRIPOS>SUBSTRUCTURE
     1 BK2         1 TEMP              0 ****  ****    0 ROOT
