@<TRIPOS>MOLECULE
BK2
   43    46     1     0     0
SMALL
bcc


@<TRIPOS>ATOM
      1 N1           2.5540    -3.1430    -0.4190 nb         1 BK2      -0.840000
      2 C2           3.6640    -2.4100    -0.3550 ca         1 BK2       0.719900
      3 N3           3.7780    -1.1090    -0.2040 nb         1 BK2      -0.761000
      4 C4           2.5940    -0.5010    -0.0680 ca         1 BK2       0.485800
      5 C5           1.3490    -1.1390    -0.0580 ca         1 BK2      -0.510500
      6 C6           1.3730    -2.5340    -0.2970 ca         1 BK2       0.784200
      7 CAA          4.1670     1.9200    -1.1460 c3         1 BK2      -0.101100
      8 CAB          4.2500     1.7050     1.3590 c3         1 BK2      -0.101100
      9 CAC          2.6130     3.2470     0.2860 c3         1 BK2      -0.101100
     10 NAD          0.2740    -3.2840    -0.4070 nv         1 BK2      -0.958500
     11 CAE         -6.0180     0.7460     0.0190 ca         1 BK2      -0.121000
     12 CAF         -5.3990     1.7610    -0.7410 ca         1 BK2      -0.126000
     13 CAH         -1.6780    -1.1330     1.0250 ca         1 BK2      -0.127000
     14 CAI         -5.2620    -0.2140     0.6360 ca         1 BK2      -0.119000
     15 CAJ         -4.0380     1.7960    -0.8700 ca         1 BK2      -0.111000
     16 CAK         -3.0380    -1.1710     1.1520 ca         1 BK2      -0.120000
     17 CAL         -1.8230     0.8270    -0.3650 ca         1 BK2      -0.083000
     18 NAO          1.0480     1.0580     0.2080 nc         1 BK2      -0.518100
     19 CAQ         -1.0490    -0.1290     0.2460 ca         1 BK2      -0.099900
     20 CAR          0.4120    -0.0870     0.1310 cd         1 BK2       0.428500
     21 CAS         -3.8530    -0.2020     0.5210 ca         1 BK2      -0.034000
     22 CAT         -3.2300     0.8180    -0.2440 ca         1 BK2      -0.040000
     23 NAW          2.3590     0.8200     0.0840 na         1 BK2       0.012200
     24 CAX          3.3470     1.9180     0.1440 c3         1 BK2       0.105700
     25 H2           4.5910    -2.9650    -0.4530 h5         1 BK2       0.044100
     26 HAA          4.8690     2.7530    -1.1280 hc         1 BK2       0.050367
     27 HAAA         4.7390     1.0000    -1.2590 hc         1 BK2       0.050367
     28 HAAB         3.5240     2.0370    -2.0190 hc         1 BK2       0.050367
     29 HAB          4.9650     2.5260     1.4320 hc         1 BK2       0.050367
     30 HABA         3.6650     1.6840     2.2800 hc         1 BK2       0.050367
     31 HABB         4.8160     0.7770     1.2860 hc         1 BK2       0.050367
     32 HAC          1.9370     3.4350    -0.5470 hc         1 BK2       0.050367
     33 HACA         2.0390     3.2990     1.2100 hc         1 BK2       0.050367
     34 HACB         3.3550     4.0440     0.3060 hc         1 BK2       0.050367
     35 HNAD         0.3690    -4.2530    -0.6600 hn         1 BK2       0.446300
     36 HNAA        -0.6410    -2.8760    -0.4840 hn         1 BK2       0.446300
     37 HAE         -7.0960     0.7300     0.1140 ha         1 BK2       0.132000
     38 HAF         -6.0090     2.5150    -1.2210 ha         1 BK2       0.132000
     39 HAH         -1.0740    -1.8650     1.5470 ha         1 BK2       0.139000
     40 HAI         -5.7360    -0.9940     1.2190 ha         1 BK2       0.132000
     41 HAJ         -3.5620     2.5770    -1.4510 ha         1 BK2       0.134000
     42 HAK         -3.5050    -1.9430     1.7510 ha         1 BK2       0.133000
     43 HAL         -1.3550     1.6000    -0.9620 ha         1 BK2       0.145000
@<TRIPOS>BOND
     1     1     2 ar  
     2     1     6 ar  
     3     2     3 ar  
     4     2    25 1   
     5     3     4 ar  
     6     4     5 ar  
     7     4    23 1   
     8     5     6 ar  
     9     5    20 1   
    10     6    10 1   
    11     7    24 1   
    12     7    26 1   
    13     7    27 1   
    14     7    28 1   
    15     8    24 1   
    16     8    29 1   
    17     8    30 1   
    18     8    31 1   
    19     9    24 1   
    20     9    32 1   
    21     9    33 1   
    22     9    34 1   
    23    10    35 1   
    24    10    36 1   
    25    11    12 ar  
    26    11    14 ar  
    27    11    37 1   
    28    12    15 ar  
    29    12    38 1   
    30    13    16 ar  
    31    13    19 ar  
    32    13    39 1   
    33    14    21 ar  
    34    14    40 1   
    35    15    22 ar  
    36    15    41 1   
    37    16    21 ar  
    38    16    42 1   
    39    17    19 ar  
    40    17    22 ar  
    41    17    43 1   
    42    18    20 2   
    43    18    23 1   
    44    19    20 1   
    45    21    22 ar  
    46    23    24 1   
@<TRIPOS>SUBSTRUCTURE
     1 BK2         1 TEMP              0 ****  ****    0 ROOT
