@<TRIPOS>MOLECULE
BK3
   52    56     1     0     0
SMALL
No Charge or Current Charge


@<TRIPOS>ATOM
      1 N1           0.5310     4.1310    -0.0280 nb         1 BK3      -0.311000
      2 C2           1.5970     3.7250    -0.7580 ca         1 BK3       0.195900
      3 N3           1.9820     2.4460    -0.9820 nb         1 BK3      -0.230000
      4 C4           1.2060     1.5000    -0.4170 ca         1 BK3       0.157500
      5 C5           0.1050     1.8220     0.3240 ca         1 BK3      -0.381900
      6 C6          -0.2170     3.1630     0.5190 ca         1 BK3       0.454900
      7 NAA         -1.2520     3.5970     1.2690 nv         1 BK3      -1.065900
      8 NBB          1.2810     0.1180    -0.4140 na         1 BK3      -0.015100
      9 NAR          0.2380    -0.4680     0.3020 nc         1 BK3      -0.528100
     10 NAS          6.0660    -1.9620     0.8440 n7         1 BK3      -0.844400
     11 CAB         -4.0430    -3.7950    -0.8640 ca         1 BK3      -0.105000
     12 CAC         -2.8930    -3.6530    -0.0740 ca         1 BK3      -0.110000
     13 CAD         -4.9590     0.9700    -0.4620 ca         1 BK3      -0.108000
     14 CAE         -3.8170     1.1380     0.3330 ca         1 BK3      -0.102000
     15 CAG         -4.8350    -2.6730    -1.1500 ca         1 BK3      -0.102000
     16 CAH         -5.2920    -0.2990    -0.9500 ca         1 BK3      -0.093000
     17 CAI         -2.5340    -2.3930     0.4330 ca         1 BK3      -0.092000
     18 CAJ          6.1770    -1.3780    -0.5140 c6         1 BK3       0.148800
     19 CAK          5.0920    -1.2390     1.6970 c6         1 BK3       0.148800
     20 CAL          4.8040    -1.3730    -1.2280 c6         1 BK3      -0.109900
     21 CAM          3.6870    -1.2280     1.0480 c6         1 BK3      -0.109900
     22 CAO          2.3410    -0.6540    -1.0900 c3         1 BK3       0.099600
     23 CAU         -2.9870     0.0430     0.6560 ca         1 BK3      -0.066300
     24 CAV         -0.4870     0.5680     0.7460 cd         1 BK3       0.393900
     25 CAW         -4.4810    -1.4070    -0.6460 ca         1 BK3      -0.037000
     26 CAX         -3.3220    -1.2490     0.1570 ca         1 BK3      -0.021000
     27 CBA          3.7320    -0.6290    -0.3870 c6         1 BK3      -0.081700
     28 H2           2.2100     4.5050    -1.2060 h5         1 BK3       0.046100
     29 HNAA        -1.2790     4.5920     1.4780 hn         1 BK3       0.496000
     30 HNAB        -1.6160     2.9870     1.9900 hn         1 BK3       0.496000
     31 HNAS         5.7470    -2.9340     0.7480 hn         1 BK3       0.401000
     32 HAC         -2.2770    -4.5220     0.1460 ha         1 BK3       0.112000
     33 HAD         -5.5870     1.8260    -0.6990 ha         1 BK3       0.114000
     34 HAE         -3.5780     2.1320     0.7010 ha         1 BK3       0.102000
     35 HAG         -5.7250    -2.7900    -1.7640 ha         1 BK3       0.112000
     36 HAH         -6.1800    -0.4210    -1.5660 ha         1 BK3       0.114000
     37 HAI         -1.6340    -2.3300     1.0360 ha         1 BK3       0.125000
     38 HAJ          6.5580    -0.3470    -0.4420 h1         1 BK3       0.052950
     39 HAJA         6.9010    -1.9550    -1.1090 h1         1 BK3       0.052950
     40 HAK          5.0370    -1.7180     2.6860 h1         1 BK3       0.052950
     41 HAKA         5.4330    -0.2040     1.8500 h1         1 BK3       0.052950
     42 HAL          4.9070    -0.8980    -2.2130 hc         1 BK3       0.046950
     43 HALA         4.4840    -2.4080    -1.4140 hc         1 BK3       0.046950
     44 HAM          3.2880    -2.2520     1.0150 hc         1 BK3       0.046950
     45 HAMA         3.0020    -0.6480     1.6810 hc         1 BK3       0.046950
     46 HAO          2.0090    -1.6960    -1.1810 h1         1 BK3       0.071200
     47 HAOA         2.4530    -0.2560    -2.1060 h1         1 BK3       0.071200
     48 HBA          4.0260     0.4280    -0.3140 hc         1 BK3       0.066700
     49 CAN         -1.7550     0.3120     1.5320 c3         1 BK3      -0.036400
     50 HAB         -4.3190    -4.7720    -1.2560 ha         1 BK3       0.113000
     51 HAN         -1.9540     1.1610     2.1920 hc         1 BK3       0.056700
     52 HANA        -1.5940    -0.5130     2.2330 hc         1 BK3       0.056700
@<TRIPOS>BOND
     1     1     2 ar  
     2     1     6 ar  
     3     2     3 ar  
     4     2    28 1   
     5     3     4 ar  
     6     4     5 ar  
     7     4     8 1   
     8     5     6 ar  
     9     5    24 1   
    10     6     7 1   
    11     7    29 1   
    12     7    30 1   
    13     8     9 1   
    14     8    22 1   
    15     9    24 2   
    16    10    18 1   
    17    10    19 1   
    18    10    31 1   
    19    11    12 ar  
    20    11    15 ar  
    21    11    50 1   
    22    12    17 ar  
    23    12    32 1   
    24    13    14 ar  
    25    13    16 ar  
    26    13    33 1   
    27    14    23 ar  
    28    14    34 1   
    29    15    25 ar  
    30    15    35 1   
    31    16    25 ar  
    32    16    36 1   
    33    17    26 ar  
    34    17    37 1   
    35    18    20 1   
    36    18    38 1   
    37    18    39 1   
    38    19    21 1   
    39    19    40 1   
    40    19    41 1   
    41    20    27 1   
    42    20    42 1   
    43    20    43 1   
    44    21    27 1   
    45    21    44 1   
    46    21    45 1   
    47    22    27 1   
    48    22    46 1   
    49    22    47 1   
    50    23    26 ar  
    51    23    49 1   
    52    24    49 1   
    53    25    26 ar  
    54    27    48 1   
    55    49    51 1   
    56    49    52 1   
@<TRIPOS>SUBSTRUCTURE
     1 BK3         1 TEMP              0 ****  ****    0 ROOT
