@<TRIPOS>MOLECULE
BK3
   52    56     1     0     0
SMALL
bcc


@<TRIPOS>ATOM
      1 N1           0.4360     4.1540    -0.3080 nb         1 BK3      -0.837000
      2 C2           1.4460     3.7270    -1.0650 ca         1 BK3       0.721900
      3 N3           1.8710     2.4940    -1.2420 nb         1 BK3      -0.756000
      4 C4           1.1360     1.6060    -0.5650 ca         1 BK3       0.485800
      5 C5           0.0370     1.8900     0.2520 ca         1 BK3      -0.513500
      6 C6          -0.2810     3.2620     0.3790 ca         1 BK3       0.783200
      7 NAA         -1.2760     3.7260     1.1430 nv         1 BK3      -0.955500
      8 NBB          1.3020     0.2730    -0.5430 na         1 BK3       0.014200
      9 NAR          0.3820    -0.3170     0.2400 nc         1 BK3      -0.528100
     10 NAS          5.7380    -2.1590     0.9830 n7         1 BK3      -0.789200
     11 CAB         -3.7000    -3.7160    -1.0010 ca         1 BK3      -0.123000
     12 CAC         -2.5140    -3.5510    -0.2590 ca         1 BK3      -0.128000
     13 CAD         -4.9070     0.8780    -0.1230 ca         1 BK3      -0.126000
     14 CAE         -3.7290     1.0470     0.6320 ca         1 BK3      -0.120000
     15 CAG         -4.5630    -2.6660    -1.1460 ca         1 BK3      -0.120000
     16 CAH         -5.1800    -0.3250    -0.7060 ca         1 BK3      -0.111000
     17 CAI         -2.2150    -2.3470     0.3190 ca         1 BK3      -0.110000
     18 CAJ          5.9560    -1.5610    -0.3250 c6         1 BK3       0.148800
     19 CAK          4.7360    -1.4290     1.7420 c6         1 BK3       0.148800
     20 CAL          4.6790    -1.3780    -1.1420 c6         1 BK3      -0.109900
     21 CAM          3.4090    -1.2450     1.0090 c6         1 BK3      -0.109900
     22 CAO          2.3480    -0.4920    -1.1800 c3         1 BK3       0.070300
     23 CAU         -2.8240     0.0290     0.7960 ca         1 BK3      -0.066300
     24 CAV         -0.3950     0.6200     0.7250 cd         1 BK3       0.393900
     25 CAW         -4.2840    -1.4090    -0.5580 ca         1 BK3      -0.037000
     26 CAX         -3.0880    -1.2370     0.1940 ca         1 BK3      -0.021000
     27 CBA          3.6280    -0.5950    -0.3550 c6         1 BK3      -0.081700
     28 H2           1.9870     4.5020    -1.5970 h5         1 BK3       0.046100
     29 HNAA        -1.3730     4.7210     1.2580 hn         1 BK3       0.440800
     30 HNAB        -1.7320     3.1460     1.8230 hn         1 BK3       0.440800
     31 HNAS         5.4190    -3.1140     0.8550 hn         1 BK3       0.345800
     32 HAC         -1.8330    -4.3850    -0.1450 ha         1 BK3       0.130000
     33 HAD         -5.5920     1.7090    -0.2310 ha         1 BK3       0.132000
     34 HAE         -3.5440     2.0100     1.0900 ha         1 BK3       0.120000
     35 HAG         -5.4770    -2.7820    -1.7160 ha         1 BK3       0.130000
     36 HAH         -6.0850    -0.4650    -1.2860 ha         1 BK3       0.132000
     37 HAI         -1.2900    -2.2470     0.8670 ha         1 BK3       0.143000
     38 HAJ          6.4310    -0.5850    -0.1760 h1         1 BK3       0.052950
     39 HAJA         6.6710    -2.1750    -0.8770 h1         1 BK3       0.052950
     40 HAK          4.5720    -1.9410     2.6920 h1         1 BK3       0.052950
     41 HAKA         5.1510    -0.4440     1.9870 h1         1 BK3       0.052950
     42 HAL          4.9080    -0.8700    -2.0830 hc         1 BK3       0.046950
     43 HALA         4.2750    -2.3630    -1.4050 hc         1 BK3       0.046950
     44 HAM          2.9300    -2.2220     0.8760 hc         1 BK3       0.046950
     45 HAMA         2.7340    -0.6440     1.6240 hc         1 BK3       0.046950
     46 HAO          1.9430    -1.4850    -1.3840 h1         1 BK3       0.071200
     47 HAOA         2.5640    -0.0230    -2.1420 h1         1 BK3       0.071200
     48 HBA          4.0100     0.4230    -0.1960 hc         1 BK3       0.066700
     49 CAN         -1.5630     0.2690     1.5950 c3         1 BK3      -0.036400
     50 HAB         -3.9240    -4.6740    -1.4540 ha         1 BK3       0.131000
     51 HAN         -1.7400     1.0670     2.3170 hc         1 BK3       0.056700
     52 HANA        -1.3100    -0.6070     2.1930 hc         1 BK3       0.056700
@<TRIPOS>BOND
     1     1     2 ar  
     2     1     6 ar  
     3     2     3 ar  
     4     2    28 1   
     5     3     4 ar  
     6     4     5 ar  
     7     4     8 1   
     8     5     6 ar  
     9     5    24 1   
    10     6     7 1   
    11     7    29 1   
    12     7    30 1   
    13     8     9 1   
    14     8    22 1   
    15     9    24 2   
    16    10    18 1   
    17    10    19 1   
    18    10    31 1   
    19    11    12 ar  
    20    11    15 ar  
    21    11    50 1   
    22    12    17 ar  
    23    12    32 1   
    24    13    14 ar  
    25    13    16 ar  
    26    13    33 1   
    27    14    23 ar  
    28    14    34 1   
    29    15    25 ar  
    30    15    35 1   
    31    16    25 ar  
    32    16    36 1   
    33    17    26 ar  
    34    17    37 1   
    35    18    20 1   
    36    18    38 1   
    37    18    39 1   
    38    19    21 1   
    39    19    40 1   
    40    19    41 1   
    41    20    27 1   
    42    20    42 1   
    43    20    43 1   
    44    21    27 1   
    45    21    44 1   
    46    21    45 1   
    47    22    27 1   
    48    22    46 1   
    49    22    47 1   
    50    23    26 ar  
    51    23    49 1   
    52    24    49 1   
    53    25    26 ar  
    54    27    48 1   
    55    49    51 1   
    56    49    52 1   
@<TRIPOS>SUBSTRUCTURE
     1 BK3         1 TEMP              0 ****  ****    0 ROOT
