@<TRIPOS>MOLECULE
BK4
   44    47     1     0     0
SMALL
No Charge or Current Charge


@<TRIPOS>ATOM
      1 N1           3.4880    -2.8770    -0.6150 nb         1 BK4      -0.315000
      2 C2           4.6230    -2.1420    -0.5290 ca         1 BK4       0.195900
      3 N3           4.7080    -0.8150    -0.2730 nb         1 BK4      -0.235000
      4 C4           3.5350    -0.1880    -0.0560 ca         1 BK4       0.156500
      5 C5           2.3490    -0.8650    -0.0820 ca         1 BK4      -0.380900
      6 C6           2.3410    -2.2210    -0.3960 ca         1 BK4       0.456900
      7 CAA         -7.5710     0.6760    -0.4060 c3         1 BK4       0.150900
      8 CAB          4.1060     3.1750    -1.0030 c3         1 BK4      -0.103600
      9 CAC          4.1400     3.0190     1.5510 c3         1 BK4      -0.103600
     10 NAD          1.2180    -2.9510    -0.5520 nv         1 BK4      -1.067900
     11 CAF         -4.7270     1.1650    -0.7660 ca         1 BK4      -0.180000
     12 CAG         -0.6220    -1.1450     1.1170 ca         1 BK4      -0.099000
     13 CAH         -3.3420     1.3640    -0.9100 ca         1 BK4      -0.056000
     14 CAI         -2.0050    -1.3440     1.2620 ca         1 BK4      -0.112000
     15 CAJ         -4.3000    -0.7110     0.7250 ca         1 BK4      -0.154000
     16 CAK         -1.0460     0.7220    -0.3820 ca         1 BK4      -0.051000
     17 NAN          1.8360     1.3480     0.2670 nc         1 BK4      -0.521100
     18 CAP         -5.2100     0.1220     0.0550 ca         1 BK4       0.148100
     19 CAQ         -0.1300    -0.1300     0.2700 ca         1 BK4      -0.115900
     20 CAS          1.3180     0.1190     0.1540 cd         1 BK4       0.435500
     21 CAT         -2.9140    -0.5150     0.5820 ca         1 BK4       0.005000
     22 CAU         -2.4330     0.5250    -0.2390 ca         1 BK4      -0.075000
     23 NAY          3.2160     1.1460     0.1630 na         1 BK4      -0.017100
     24 H2           5.5610    -2.6670    -0.7050 h5         1 BK4       0.045100
     25 HAA         -7.4930     1.7270    -0.1000 h1         1 BK4       0.041367
     26 HAAA        -7.4800     0.6190    -1.4980 h1         1 BK4       0.041367
     27 HAAB        -8.5690     0.3140    -0.1290 h1         1 BK4       0.041367
     28 HAB          4.2070     2.6040    -1.9340 hc         1 BK4       0.048033
     29 HABA         3.1370     3.6890    -1.0190 hc         1 BK4       0.048033
     30 HABB         4.8980     3.9330    -0.9810 hc         1 BK4       0.048033
     31 HAC          3.1780     3.5350     1.6510 hc         1 BK4       0.048033
     32 HACA         4.2570     2.3380     2.4020 hc         1 BK4       0.048033
     33 HACB         4.9390     3.7690     1.6030 hc         1 BK4       0.048033
     34 HNAD         1.2980    -3.8530    -1.0110 hn         1 BK4       0.502000
     35 HNAA         0.3310    -2.4650    -0.6450 hn         1 BK4       0.502000
     36 HAF         -5.4050     1.8270    -1.2970 ha         1 BK4       0.118000
     37 HAG          0.0690    -1.7740     1.6740 ha         1 BK4       0.121000
     38 HAH         -2.9790     2.1700    -1.5450 ha         1 BK4       0.116000
     39 HAI         -2.3680    -2.1370     1.9130 ha         1 BK4       0.117000
     40 HAJ         -4.6770    -1.5100     1.3580 ha         1 BK4       0.129000
     41 HAK         -0.6760     1.5300    -1.0090 ha         1 BK4       0.125000
     42 HAX          5.2080     1.7740     0.1800 h1         1 BK4       0.082700
     43 CAX          4.2140     2.2380     0.2200 c3         1 BK4       0.111300
     44 OAO         -6.5570    -0.1190     0.2340 os         1 BK4      -0.343100
@<TRIPOS>BOND
     1     1     2 ar  
     2     1     6 ar  
     3     2     3 ar  
     4     2    24 1   
     5     3     4 ar  
     6     4     5 ar  
     7     4    23 1   
     8     5     6 ar  
     9     5    20 1   
    10     6    10 1   
    11     7    25 1   
    12     7    26 1   
    13     7    27 1   
    14     7    44 1   
    15     8    28 1   
    16     8    29 1   
    17     8    30 1   
    18     8    43 1   
    19     9    31 1   
    20     9    32 1   
    21     9    33 1   
    22     9    43 1   
    23    10    34 1   
    24    10    35 1   
    25    11    13 ar  
    26    11    18 ar  
    27    11    36 1   
    28    12    14 ar  
    29    12    19 ar  
    30    12    37 1   
    31    13    22 ar  
    32    13    38 1   
    33    14    21 ar  
    34    14    39 1   
    35    15    18 ar  
    36    15    21 ar  
    37    15    40 1   
    38    16    19 ar  
    39    16    22 ar  
    40    16    41 1   
    41    17    20 2   
    42    17    23 1   
    43    18    44 1   
    44    19    20 1   
    45    21    22 ar  
    46    23    43 1   
    47    42    43 1   
@<TRIPOS>SUBSTRUCTURE
     1 BK4         1 TEMP              0 ****  ****    0 ROOT
