@<TRIPOS>MOLECULE
BK4
   44    47     1     0     0
SMALL
bcc


@<TRIPOS>ATOM
      1 N1           3.7170    -2.8280    -0.5330 nb         1 BK4      -0.841000
      2 C2           4.7600    -2.0020    -0.4580 ca         1 BK4       0.721900
      3 N3           4.7610    -0.7010    -0.2590 nb         1 BK4      -0.761000
      4 C4           3.5280    -0.2170    -0.0810 ca         1 BK4       0.484800
      5 C5           2.3410    -0.9570    -0.0810 ca         1 BK4      -0.511500
      6 C6           2.4870    -2.3340    -0.3720 ca         1 BK4       0.785200
      7 CAA         -7.4160     0.8790    -0.3910 c3         1 BK4       0.127700
      8 CAB          3.8410     3.1100    -1.0550 c3         1 BK4      -0.103600
      9 CAC          3.8860     2.9880     1.4710 c3         1 BK4      -0.103600
     10 NAD          1.4600    -3.1770    -0.4970 nv         1 BK4      -0.957500
     11 CAF         -4.6510     1.3160    -0.6720 ca         1 BK4      -0.198000
     12 CAG         -0.6620    -1.2470     1.0180 ca         1 BK4      -0.117000
     13 CAH         -3.2970     1.4800    -0.7900 ca         1 BK4      -0.074000
     14 CAI         -2.0100    -1.4210     1.1440 ca         1 BK4      -0.130000
     15 CAJ         -4.3130    -0.6780     0.6490 ca         1 BK4      -0.172000
     16 CAK         -0.9930     0.7270    -0.3150 ca         1 BK4      -0.069000
     17 NAN          1.8600     1.2020     0.2560 nc         1 BK4      -0.521100
     18 CAP         -5.1720     0.2200     0.0570 ca         1 BK4       0.148100
     19 CAQ         -0.1290    -0.1670     0.2670 ca         1 BK4      -0.115900
     20 CAS          1.3210     0.0090     0.1480 cd         1 BK4       0.435500
     21 CAT         -2.9190    -0.5190     0.5380 ca         1 BK4       0.005000
     22 CAU         -2.3920     0.5760    -0.1950 ca         1 BK4      -0.075000
     23 NAY          3.1850     1.0670     0.1190 na         1 BK4       0.012200
     24 H2           5.7310    -2.4680    -0.5920 h5         1 BK4       0.045100
     25 HAA         -7.3270     1.8960    -0.0020 h1         1 BK4       0.041367
     26 HAAA        -7.3090     0.9040    -1.4790 h1         1 BK4       0.041367
     27 HAAB        -8.4040     0.4990    -0.1470 h1         1 BK4       0.041367
     28 HAB          3.9740     2.5490    -1.9800 hc         1 BK4       0.048033
     29 HABA         2.8370     3.5370    -1.0520 hc         1 BK4       0.048033
     30 HABB         4.5560     3.9320    -1.0540 hc         1 BK4       0.048033
     31 HAC          2.8890     3.4230     1.5420 hc         1 BK4       0.048033
     32 HACA         4.0440     2.3390     2.3320 hc         1 BK4       0.048033
     33 HACB         4.6110     3.7990     1.5220 hc         1 BK4       0.048033
     34 HNAD         1.6390    -4.1220    -0.7930 hn         1 BK4       0.446800
     35 HNAA         0.5100    -2.8510    -0.5450 hn         1 BK4       0.446800
     36 HAF         -5.3070     2.0350    -1.1430 ha         1 BK4       0.136000
     37 HAG          0.0090    -1.9300     1.5250 ha         1 BK4       0.139000
     38 HAH         -2.9100     2.3240    -1.3480 ha         1 BK4       0.134000
     39 HAI         -2.3960    -2.2520     1.7220 ha         1 BK4       0.135000
     40 HAJ         -4.7120    -1.5180     1.2050 ha         1 BK4       0.147000
     41 HAK         -0.6060     1.5600    -0.8890 ha         1 BK4       0.143000
     42 HAX          5.0720     1.8150     0.1280 h1         1 BK4       0.082700
     43 CAX          4.0640     2.2270     0.1650 c3         1 BK4       0.082000
     44 OAO         -6.4890    -0.0040     0.2110 os         1 BK4      -0.319900
@<TRIPOS>BOND
     1     1     2 ar  
     2     1     6 ar  
     3     2     3 ar  
     4     2    24 1   
     5     3     4 ar  
     6     4     5 ar  
     7     4    23 1   
     8     5     6 ar  
     9     5    20 1   
    10     6    10 1   
    11     7    25 1   
    12     7    26 1   
    13     7    27 1   
    14     7    44 1   
    15     8    28 1   
    16     8    29 1   
    17     8    30 1   
    18     8    43 1   
    19     9    31 1   
    20     9    32 1   
    21     9    33 1   
    22     9    43 1   
    23    10    34 1   
    24    10    35 1   
    25    11    13 ar  
    26    11    18 ar  
    27    11    36 1   
    28    12    14 ar  
    29    12    19 ar  
    30    12    37 1   
    31    13    22 ar  
    32    13    38 1   
    33    14    21 ar  
    34    14    39 1   
    35    15    18 ar  
    36    15    21 ar  
    37    15    40 1   
    38    16    19 ar  
    39    16    22 ar  
    40    16    41 1   
    41    17    20 2   
    42    17    23 1   
    43    18    44 1   
    44    19    20 1   
    45    21    22 ar  
    46    23    43 1   
    47    42    43 1   
@<TRIPOS>SUBSTRUCTURE
     1 BK4         1 TEMP              0 ****  ****    0 ROOT
