@<TRIPOS>MOLECULE
BK5
   47    50     1     0     0
SMALL
bcc


@<TRIPOS>ATOM
      1 N1           4.1040     2.7890     0.4920 nb         1 BK5      -0.841000
      2 C2           5.1380     1.9540     0.4100 ca         1 BK5       0.722900
      3 N3           5.1250     0.6520     0.2150 nb         1 BK5      -0.762000
      4 C4           3.8860     0.1780     0.0520 ca         1 BK5       0.485800
      5 C5           2.7060     0.9290     0.0620 ca         1 BK5      -0.511500
      6 C6           2.8670     2.3060     0.3460 ca         1 BK5       0.786200
      7 CAA         -8.4620    -0.3640     0.0740 c3         1 BK5      -0.095100
      8 CAB          4.1780    -3.1580     1.0160 c3         1 BK5      -0.103600
      9 CAC          4.2010    -3.0240    -1.5080 c3         1 BK5      -0.103600
     10 NAD          1.8500     3.1590     0.4780 nv         1 BK5      -0.957500
     11 CAE         -4.2990    -1.2890     0.7240 ca         1 BK5      -0.200000
     12 CAF         -0.3060     1.2400    -1.0090 ca         1 BK5      -0.118000
     13 CAG         -2.9460    -1.4600     0.8340 ca         1 BK5      -0.074000
     14 CAH         -1.6550     1.4230    -1.1240 ca         1 BK5      -0.130000
     15 CAJ         -3.9580     0.6960    -0.6090 ca         1 BK5      -0.175000
     16 CAK         -0.6400    -0.7260     0.3370 ca         1 BK5      -0.068000
     17 CAL         -7.0790    -0.8480     0.4360 c3         1 BK5       0.144400
     18 NAO          2.2020    -1.2270    -0.2650 nc         1 BK5      -0.521100
     19 CAQ         -4.8200    -0.1950    -0.0100 ca         1 BK5       0.155100
     20 CAR          0.2250     0.1590    -0.2570 ca         1 BK5      -0.116900
     21 CAT          1.6750    -0.0290    -0.1530 cd         1 BK5       0.435500
     22 CAU         -2.5650     0.5300    -0.5060 ca         1 BK5       0.007000
     23 CAV         -2.0390    -0.5640     0.2280 ca         1 BK5      -0.076000
     24 NAZ          3.5290    -1.1030    -0.1420 na         1 BK5       0.012200
     25 H2           6.1140     2.4110     0.5330 h5         1 BK5       0.045100
     26 HAA         -9.2030    -1.0260     0.5210 hc         1 BK5       0.048033
     27 HAAA        -8.6440     0.6440     0.4470 hc         1 BK5       0.048033
     28 HAAB        -8.6150    -0.3700    -1.0060 hc         1 BK5       0.048033
     29 HAB          4.8850    -3.9860     1.0050 hc         1 BK5       0.047867
     30 HABA         4.3250    -2.6020     1.9430 hc         1 BK5       0.047867
     31 HABB         3.1700    -3.5740     1.0210 hc         1 BK5       0.047867
     32 HAC          4.3450    -2.3700    -2.3690 hc         1 BK5       0.047867
     33 HACA         4.9280    -3.8330    -1.5750 hc         1 BK5       0.047867
     34 HACB         3.2050    -3.4620    -1.5680 hc         1 BK5       0.047867
     35 HNAD         2.0400     4.1060     0.7580 hn         1 BK5       0.447300
     36 HNAA         0.8970     2.8440     0.5280 hn         1 BK5       0.447300
     37 HAE         -4.9550    -2.0020     1.2040 ha         1 BK5       0.135000
     38 HAF          0.3650     1.9150    -1.5260 ha         1 BK5       0.138000
     39 HAG         -2.5600    -2.3020     1.3950 ha         1 BK5       0.133000
     40 HAH         -2.0390     2.2540    -1.7030 ha         1 BK5       0.135000
     41 HAJ         -4.3560     1.5350    -1.1680 ha         1 BK5       0.147000
     42 HAK         -0.2540    -1.5590     0.9110 ha         1 BK5       0.143000
     43 HAL         -6.9490    -0.8600     1.5230 h1         1 BK5       0.033700
     44 HALA        -6.9280    -1.8700     0.0720 h1         1 BK5       0.033700
     45 HAY          5.4100    -1.8670    -0.1710 h1         1 BK5       0.082700
     46 CAY          4.3970    -2.2710    -0.2010 c3         1 BK5       0.082000
     47 OAP         -6.1360     0.0330    -0.1630 os         1 BK5      -0.327900
@<TRIPOS>BOND
     1     1     2 ar  
     2     1     6 ar  
     3     2     3 ar  
     4     2    25 1   
     5     3     4 ar  
     6     4     5 ar  
     7     4    24 1   
     8     5     6 ar  
     9     5    21 1   
    10     6    10 1   
    11     7    17 1   
    12     7    26 1   
    13     7    27 1   
    14     7    28 1   
    15     8    29 1   
    16     8    30 1   
    17     8    31 1   
    18     8    46 1   
    19     9    32 1   
    20     9    33 1   
    21     9    34 1   
    22     9    46 1   
    23    10    35 1   
    24    10    36 1   
    25    11    13 ar  
    26    11    19 ar  
    27    11    37 1   
    28    12    14 ar  
    29    12    20 ar  
    30    12    38 1   
    31    13    23 ar  
    32    13    39 1   
    33    14    22 ar  
    34    14    40 1   
    35    15    19 ar  
    36    15    22 ar  
    37    15    41 1   
    38    16    20 ar  
    39    16    23 ar  
    40    16    42 1   
    41    17    43 1   
    42    17    44 1   
    43    17    47 1   
    44    18    21 2   
    45    18    24 1   
    46    19    47 1   
    47    20    21 1   
    48    22    23 ar  
    49    24    46 1   
    50    45    46 1   
@<TRIPOS>SUBSTRUCTURE
     1 BK5         1 TEMP              0 ****  ****    0 ROOT
