@<TRIPOS>MOLECULE
BK5
   47    50     1     0     0
SMALL
No Charge or Current Charge


@<TRIPOS>ATOM
      1 N1           3.8500     2.8500     0.5800 nb         1 BK5      -0.315000
      2 C2           4.9850     2.1160     0.4850 ca         1 BK5       0.196900
      3 N3           5.0690     0.7890     0.2290 nb         1 BK5      -0.236000
      4 C4           3.8940     0.1600     0.0230 ca         1 BK5       0.157500
      5 C5           2.7080     0.8370     0.0590 ca         1 BK5      -0.380900
      6 C6           2.7010     2.1920     0.3720 ca         1 BK5       0.457900
      7 CAA         -8.5760    -0.1540     0.0680 c3         1 BK5      -0.095100
      8 CAB          4.4750    -3.2020     0.9670 c3         1 BK5      -0.103600
      9 CAC          4.4880    -3.0470    -1.5880 c3         1 BK5      -0.103600
     10 NAD          1.5790     2.9220     0.5370 nv         1 BK5      -1.067900
     11 CAE         -4.3590    -1.1970     0.8150 ca         1 BK5      -0.182000
     12 CAF         -0.2750     1.1130    -1.1120 ca         1 BK5      -0.100000
     13 CAG         -2.9730    -1.3950     0.9450 ca         1 BK5      -0.056000
     14 CAH         -1.6600     1.3120    -1.2440 ca         1 BK5      -0.112000
     15 CAJ         -3.9480     0.6780    -0.6830 ca         1 BK5      -0.157000
     16 CAK         -0.6830    -0.7520     0.3930 ca         1 BK5      -0.050000
     17 CAL         -7.2050    -0.7090     0.4830 c3         1 BK5       0.167600
     18 NAO          2.1930    -1.3770    -0.2840 nc         1 BK5      -0.521100
     19 CAQ         -4.8510    -0.1550    -0.0020 ca         1 BK5       0.155100
     20 CAR          0.2260     0.1000    -0.2690 ca         1 BK5      -0.116900
     21 CAT          1.6760    -0.1490    -0.1670 cd         1 BK5       0.435500
     22 CAU         -2.5610     0.4830    -0.5530 ca         1 BK5       0.007000
     23 CAV         -2.0710    -0.5560     0.2640 ca         1 BK5      -0.076000
     24 NAZ          3.5740    -1.1730    -0.1920 na         1 BK5      -0.017100
     25 H2           5.9240     2.6410     0.6520 h5         1 BK5       0.045100
     26 HAA         -9.3780    -0.7310     0.5420 hc         1 BK5       0.048033
     27 HAAA        -8.6780     0.8940     0.3750 hc         1 BK5       0.048033
     28 HAAB        -8.7050    -0.2150    -1.0190 hc         1 BK5       0.048033
     29 HAB          5.2680    -3.9590     0.9380 hc         1 BK5       0.047867
     30 HABA         4.5840    -2.6300     1.8960 hc         1 BK5       0.047867
     31 HABB         3.5070    -3.7170     0.9900 hc         1 BK5       0.047867
     32 HAC          4.5970    -2.3660    -2.4400 hc         1 BK5       0.047867
     33 HACA         5.2860    -3.7960    -1.6460 hc         1 BK5       0.047867
     34 HACB         3.5250    -3.5630    -1.6790 hc         1 BK5       0.047867
     35 HNAD         1.6630     3.8250     0.9960 hn         1 BK5       0.502500
     36 HNAA         0.6940     2.4360     0.6370 hn         1 BK5       0.502500
     37 HAE         -5.0310    -1.8580     1.3530 ha         1 BK5       0.117000
     38 HAF          0.4110     1.7420    -1.6770 ha         1 BK5       0.120000
     39 HAG         -2.6020    -2.2000     1.5770 ha         1 BK5       0.115000
     40 HAH         -2.0300     2.1040    -1.8910 ha         1 BK5       0.117000
     41 HAJ         -4.3320     1.4760    -1.3130 ha         1 BK5       0.129000
     42 HAK         -0.3060    -1.5590     1.0170 ha         1 BK5       0.125000
     43 HAL         -7.1020    -0.6500     1.5740 h1         1 BK5       0.033700
     44 HALA        -7.1290    -1.7610     0.1770 h1         1 BK5       0.033700
     45 HAY          5.5660    -1.8010    -0.2260 h1         1 BK5       0.082700
     46 CAY          4.5720    -2.2650    -0.2580 c3         1 BK5       0.111300
     47 OAP         -6.1990     0.0850    -0.1680 os         1 BK5      -0.351100
@<TRIPOS>BOND
     1     1     2 ar  
     2     1     6 ar  
     3     2     3 ar  
     4     2    25 1   
     5     3     4 ar  
     6     4     5 ar  
     7     4    24 1   
     8     5     6 ar  
     9     5    21 1   
    10     6    10 1   
    11     7    17 1   
    12     7    26 1   
    13     7    27 1   
    14     7    28 1   
    15     8    29 1   
    16     8    30 1   
    17     8    31 1   
    18     8    46 1   
    19     9    32 1   
    20     9    33 1   
    21     9    34 1   
    22     9    46 1   
    23    10    35 1   
    24    10    36 1   
    25    11    13 ar  
    26    11    19 ar  
    27    11    37 1   
    28    12    14 ar  
    29    12    20 ar  
    30    12    38 1   
    31    13    23 ar  
    32    13    39 1   
    33    14    22 ar  
    34    14    40 1   
    35    15    19 ar  
    36    15    22 ar  
    37    15    41 1   
    38    16    20 ar  
    39    16    23 ar  
    40    16    42 1   
    41    17    43 1   
    42    17    44 1   
    43    17    47 1   
    44    18    21 2   
    45    18    24 1   
    46    19    47 1   
    47    20    21 1   
    48    22    23 ar  
    49    24    46 1   
    50    45    46 1   
@<TRIPOS>SUBSTRUCTURE
     1 BK5         1 TEMP              0 ****  ****    0 ROOT
