@<TRIPOS>MOLECULE
BK6
   53    57     1     0     0
SMALL
abcg2


@<TRIPOS>ATOM
      1 N1           2.1020    -3.8170    -1.1540 nb         1 BK6      -0.315000
      2 C2           3.2840    -3.3650    -0.7390 ca         1 BK6       0.195900
      3 N3           3.5540    -2.2580    -0.0800 nb         1 BK6      -0.232000
      4 C4           2.4490    -1.5610     0.2010 ca         1 BK6       0.154500
      5 C5           1.1380    -1.9190    -0.1230 ca         1 BK6      -0.382900
      6 C6           1.0040    -3.1090    -0.8780 ca         1 BK6       0.458900
      7 CAA         -7.8550     2.2900    -0.1380 c3         1 BK6       0.149900
      8 NAB         -0.1630    -3.5660    -1.3340 nv         1 BK6      -1.069900
      9 CAC         -5.0500     2.0760    -0.2080 ca         1 BK6      -0.180000
     10 CAD         -1.9580    -1.7790     0.7450 ca         1 BK6      -0.099000
     11 CAE         -3.6910     1.9230    -0.2280 ca         1 BK6      -0.056000
     12 CAF         -3.3160    -1.6400     0.7650 ca         1 BK6      -0.111000
     13 CAH         -5.3200    -0.2320     0.4520 ca         1 BK6      -0.155000
     14 CAI         -1.6830     0.5160     0.0760 ca         1 BK6      -0.049000
     15 CAJ          6.1330     2.7920    -0.0680 c6         1 BK6       0.159800
     16 CAK          4.2230     2.8890    -1.5200 c6         1 BK6       0.159800
     17 CAL          5.3630     1.9800     0.9620 c6         1 BK6      -0.071400
     18 CAM          3.3720     2.0860    -0.5460 c6         1 BK6      -0.071400
     19 NAQ          1.1140     0.0380     0.9610 nc         1 BK6      -0.518100
     20 NAR          5.2220     3.6560    -0.7980 n7         1 BK6      -0.862400
     21 CAT         -5.8830     0.9840     0.1350 ca         1 BK6       0.148100
     22 CAU         -1.1150    -0.6940     0.3880 ca         1 BK6      -0.117900
     23 CAW          0.3410    -0.8620     0.3970 cd         1 BK6       0.436500
     24 CAX         -3.9240    -0.4030     0.4370 ca         1 BK6       0.006000
     25 CAY         -3.0840     0.6890     0.0930 ca         1 BK6      -0.075000
     26 CBB          4.2540     1.1660     0.2960 c6         1 BK6      -0.083700
     27 NBC          2.3820    -0.3820     0.8450 na         1 BK6      -0.016100
     28 H2           4.1340    -3.9930    -0.9900 h5         1 BK6       0.045100
     29 HAA         -7.6280     2.6240    -1.1540 h1         1 BK6       0.041367
     30 HAAA        -8.9250     2.1130    -0.0610 h1         1 BK6       0.041367
     31 HAAB        -7.5810     3.0810     0.5640 h1         1 BK6       0.041367
     32 HNAB        -0.1780    -4.3860    -1.9160 hn         1 BK6       0.504000
     33 HNAA        -1.0100    -3.0310    -1.2570 hn         1 BK6       0.504000
     34 HAC         -5.4710     3.0390    -0.4620 ha         1 BK6       0.118000
     35 HAD         -1.5160    -2.7230     1.0390 ha         1 BK6       0.120000
     36 HAE         -3.0650     2.7660    -0.4940 ha         1 BK6       0.116000
     37 HAF         -3.9400    -2.4780     1.0490 ha         1 BK6       0.117000
     38 HAH         -5.9570    -1.0690     0.7150 ha         1 BK6       0.129000
     39 HAI         -1.0560     1.3560    -0.1980 ha         1 BK6       0.125000
     40 HAJ          6.8850     3.4090     0.4290 h1         1 BK6       0.029700
     41 HAJA         6.6760     2.0960    -0.7300 h1         1 BK6       0.029700
     42 HAK          4.6730     2.1950    -2.2490 h1         1 BK6       0.029700
     43 HAKA         3.5910     3.5760    -2.0870 h1         1 BK6       0.029700
     44 HAL          6.0490     1.3220     1.5010 hc         1 BK6       0.049950
     45 HALA         4.9210     2.6590     1.6980 hc         1 BK6       0.049950
     46 HAM          2.8260     2.7720     0.1100 hc         1 BK6       0.049950
     47 HAMA         2.6290     1.5120    -1.1040 hc         1 BK6       0.049950
     48 HAN          4.1520    -0.2640     1.9070 h1         1 BK6       0.070700
     49 HANA         3.0470     1.0940     2.0880 h1         1 BK6       0.070700
     50 HNAR         5.7480     4.2220    -1.4500 hn         1 BK6       0.409000
     51 HBB          4.7260     0.4360    -0.3740 hc         1 BK6       0.064700
     52 CAN          3.4790     0.4040     1.3650 c3         1 BK6       0.102600
     53 OAS         -7.2250     1.0620     0.1720 os         1 BK6      -0.342100
@<TRIPOS>BOND
     1     1     2 ar  
     2     1     6 ar  
     3     2     3 ar  
     4     2    28 1   
     5     3     4 ar  
     6     4     5 ar  
     7     4    27 1   
     8     5     6 ar  
     9     5    23 1   
    10     6     8 1   
    11     7    29 1   
    12     7    30 1   
    13     7    31 1   
    14     7    53 1   
    15     8    32 1   
    16     8    33 1   
    17     9    11 ar  
    18     9    21 ar  
    19     9    34 1   
    20    10    12 ar  
    21    10    22 ar  
    22    10    35 1   
    23    11    25 ar  
    24    11    36 1   
    25    12    24 ar  
    26    12    37 1   
    27    13    21 ar  
    28    13    24 ar  
    29    13    38 1   
    30    14    22 ar  
    31    14    25 ar  
    32    14    39 1   
    33    15    17 1   
    34    15    20 1   
    35    15    40 1   
    36    15    41 1   
    37    16    18 1   
    38    16    20 1   
    39    16    42 1   
    40    16    43 1   
    41    17    26 1   
    42    17    44 1   
    43    17    45 1   
    44    18    26 1   
    45    18    46 1   
    46    18    47 1   
    47    19    23 2   
    48    19    27 1   
    49    20    50 1   
    50    21    53 1   
    51    22    23 1   
    52    24    25 ar  
    53    26    51 1   
    54    26    52 1   
    55    27    52 1   
    56    48    52 1   
    57    49    52 1   
@<TRIPOS>SUBSTRUCTURE
     1 BK6         1 TEMP              0 ****  ****    0 ROOT
