@<TRIPOS>MOLECULE
BK6
   53    57     1     0     0
SMALL
No Charge or Current Charge


@<TRIPOS>ATOM
      1 N1           1.9030    -3.7180    -1.2180 nb         1 BK6      -0.315000
      2 C2           3.1440    -3.3460    -0.8210 ca         1 BK6       0.195900
      3 N3           3.4630    -2.2460    -0.0970 nb         1 BK6      -0.232000
      4 C4           2.4240    -1.4750     0.2770 ca         1 BK6       0.154500
      5 C5           1.1380    -1.8030    -0.0450 ca         1 BK6      -0.382900
      6 C6           0.8940    -2.9270    -0.8280 ca         1 BK6       0.458900
      7 CAA         -8.1330     2.0540    -0.2370 c3         1 BK6       0.149900
      8 NAB         -0.3250    -3.2740    -1.2870 nv         1 BK6      -1.069900
      9 CAC         -5.2270     1.9490    -0.2640 ca         1 BK6      -0.180000
     10 CAD         -1.9560    -1.7690     0.8360 ca         1 BK6      -0.099000
     11 CAE         -3.8240     1.8520    -0.2610 ca         1 BK6      -0.056000
     12 CAF         -3.3580    -1.6730     0.8360 ca         1 BK6      -0.111000
     13 CAH         -5.3870    -0.3690     0.4600 ca         1 BK6      -0.155000
     14 CAI         -1.7940     0.5430     0.1020 ca         1 BK6      -0.049000
     15 CAJ          6.4540     2.6000    -0.1610 c6         1 BK6       0.159800
     16 CAK          4.4120     3.0000    -1.4880 c6         1 BK6       0.159800
     17 CAL          5.6430     1.8560     0.9290 c6         1 BK6      -0.071400
     18 CAM          3.5420     2.2640    -0.4390 c6         1 BK6      -0.071400
     19 NAQ          1.0470     0.2080     1.0670 nc         1 BK6      -0.518100
     20 NAR          5.6170     3.5990    -0.8670 n7         1 BK6      -0.862400
     21 CAT         -6.0140     0.8340     0.0980 ca         1 BK6       0.148100
     22 CAU         -1.1630    -0.6710     0.4410 ca         1 BK6      -0.117900
     23 CAW          0.3080    -0.7470     0.4890 cd         1 BK6       0.436500
     24 CAX         -3.9840    -0.4700     0.4620 ca         1 BK6       0.006000
     25 CAY         -3.1990     0.6440     0.0990 ca         1 BK6      -0.075000
     26 CBB          4.3690     1.1970     0.3330 c6         1 BK6      -0.083700
     27 NBC          2.3560    -0.2630     0.9480 na         1 BK6      -0.016100
     28 H2           3.9690    -3.9830    -1.1310 h5         1 BK6       0.045100
     29 HAA         -7.9170     2.3560    -1.2700 h1         1 BK6       0.041367
     30 HAAA        -9.2110     1.8660    -0.1570 h1         1 BK6       0.041367
     31 HAAB        -7.8820     2.8850     0.4340 h1         1 BK6       0.041367
     32 HNAB        -0.3720    -3.9560    -2.0390 hn         1 BK6       0.504000
     33 HNAA        -1.0750    -2.5920    -1.2390 hn         1 BK6       0.504000
     34 HAC         -5.6820     2.8930    -0.5470 ha         1 BK6       0.118000
     35 HAD         -1.4850    -2.6960     1.1580 ha         1 BK6       0.120000
     36 HAE         -3.2250     2.7160    -0.5410 ha         1 BK6       0.116000
     37 HAF         -3.9550    -2.5310     1.1350 ha         1 BK6       0.117000
     38 HAH         -5.9960    -1.2240     0.7410 ha         1 BK6       0.129000
     39 HAI         -1.1900     1.4060    -0.1700 ha         1 BK6       0.125000
     40 HAJ          7.3170     3.1040     0.3000 h1         1 BK6       0.029700
     41 HAJA         6.8440     1.8720    -0.8890 h1         1 BK6       0.029700
     42 HAK          4.7200     2.2890    -2.2700 h1         1 BK6       0.029700
     43 HAKA         3.8180     3.7880    -1.9730 h1         1 BK6       0.029700
     44 HAL          6.2790     1.0940     1.4000 hc         1 BK6       0.049950
     45 HALA         5.3640     2.5640     1.7210 hc         1 BK6       0.049950
     46 HAM          3.1230     2.9960     0.2660 hc         1 BK6       0.049950
     47 HAMA         2.6880     1.7940    -0.9460 hc         1 BK6       0.049950
     48 HAN          4.1860    -0.2320     1.9630 h1         1 BK6       0.070700
     49 HANA         3.2000     1.2210     2.1700 h1         1 BK6       0.070700
     50 HNAR         6.1820     4.0450    -1.6020 hn         1 BK6       0.409000
     51 HBB          4.6850     0.4200    -0.3780 hc         1 BK6       0.064700
     52 CAN          3.5350     0.4770     1.4360 c3         1 BK6       0.102600
     53 OAS         -7.3930     0.8710     0.1150 os         1 BK6      -0.342100
@<TRIPOS>BOND
     1     1     2 ar  
     2     1     6 ar  
     3     2     3 ar  
     4     2    28 1   
     5     3     4 ar  
     6     4     5 ar  
     7     4    27 1   
     8     5     6 ar  
     9     5    23 1   
    10     6     8 1   
    11     7    29 1   
    12     7    30 1   
    13     7    31 1   
    14     7    53 1   
    15     8    32 1   
    16     8    33 1   
    17     9    11 ar  
    18     9    21 ar  
    19     9    34 1   
    20    10    12 ar  
    21    10    22 ar  
    22    10    35 1   
    23    11    25 ar  
    24    11    36 1   
    25    12    24 ar  
    26    12    37 1   
    27    13    21 ar  
    28    13    24 ar  
    29    13    38 1   
    30    14    22 ar  
    31    14    25 ar  
    32    14    39 1   
    33    15    17 1   
    34    15    20 1   
    35    15    40 1   
    36    15    41 1   
    37    16    18 1   
    38    16    20 1   
    39    16    42 1   
    40    16    43 1   
    41    17    26 1   
    42    17    44 1   
    43    17    45 1   
    44    18    26 1   
    45    18    46 1   
    46    18    47 1   
    47    19    23 2   
    48    19    27 1   
    49    20    50 1   
    50    21    53 1   
    51    22    23 1   
    52    24    25 ar  
    53    26    51 1   
    54    26    52 1   
    55    27    52 1   
    56    48    52 1   
    57    49    52 1   
@<TRIPOS>SUBSTRUCTURE
     1 BK6         1 TEMP              0 ****  ****    0 ROOT
