@<TRIPOS>MOLECULE
BK7
   56    60     1     0     0
SMALL
bcc


@<TRIPOS>ATOM
      1 N1           2.5570    -3.8930    -1.1020 nb         1 BK7      -0.841000
      2 C2           3.7360    -3.3980    -0.7300 ca         1 BK7       0.721900
      3 N3           3.9910    -2.2740    -0.0940 nb         1 BK7      -0.760000
      4 C4           2.8740    -1.6080     0.2130 ca         1 BK7       0.483800
      5 C5           1.5660    -2.0090    -0.0690 ca         1 BK7      -0.514500
      6 C6           1.4460    -3.2120    -0.8040 ca         1 BK7       0.789200
      7 CAA         -9.0140     1.6850    -0.2270 c3         1 BK7      -0.095100
      8 NAB          0.2820    -3.7050    -1.2260 nv         1 BK7      -0.960500
      9 CAC         -4.7040     1.8000    -0.3290 ca         1 BK7      -0.200000
     10 CAD         -1.5240    -1.9180     0.8530 ca         1 BK7      -0.118000
     11 CAE         -3.3400     1.6850    -0.3180 ca         1 BK7      -0.074000
     12 CAF         -2.8850    -1.8120     0.8560 ca         1 BK7      -0.129000
     13 CAH         -4.9210    -0.4770     0.4460 ca         1 BK7      -0.175000
     14 CAI         -1.3010     0.3490     0.0790 ca         1 BK7      -0.067000
     15 CAJ         -7.5290     1.9380    -0.3210 c3         1 BK7       0.144400
     16 CAK          6.2020     3.0400    -0.2980 c6         1 BK7       0.159800
     17 CAL          4.0190     3.3400    -1.2480 c6         1 BK7       0.159800
     18 CAM          5.6740     2.0510     0.7300 c6         1 BK7      -0.071900
     19 CAN          3.3950     2.3650    -0.2590 c6         1 BK7      -0.071900
     20 NAR          1.5140    -0.0370     0.9890 nc         1 BK7      -0.517100
     21 NAS          5.1660     3.9950    -0.6450 n7         1 BK7      -0.807200
     22 CAU         -5.5130     0.7040     0.0570 ca         1 BK7       0.155100
     23 CAV         -0.7060    -0.8310     0.4500 ca         1 BK7      -0.117900
     24 CAX          0.7530    -0.9650     0.4550 cd         1 BK7       0.436500
     25 CAY         -3.5210    -0.6090     0.4610 ca         1 BK7       0.007000
     26 CAZ         -2.7060     0.4860     0.0740 ca         1 BK7      -0.076000
     27 CBC          4.4250     1.3390     0.2100 c6         1 BK7      -0.082700
     28 NBD          2.7900    -0.4240     0.8460 na         1 BK7       0.012200
     29 H2           4.5960    -4.0030    -0.9990 h5         1 BK7       0.044100
     30 HAA         -9.3240     0.8800    -0.8940 hc         1 BK7       0.048367
     31 HAAA        -9.3120     1.4290     0.7900 hc         1 BK7       0.048367
     32 HAAB        -9.5530     2.5860    -0.5170 hc         1 BK7       0.048367
     33 HNAB         0.2700    -4.5470    -1.7770 hn         1 BK7       0.449800
     34 HNAA        -0.5830    -3.2100    -1.1050 hn         1 BK7       0.449800
     35 HAC         -5.1450     2.7360    -0.6400 ha         1 BK7       0.136000
     36 HAD         -1.0600    -2.8370     1.1910 ha         1 BK7       0.137000
     37 HAE         -2.7330     2.5300    -0.6190 ha         1 BK7       0.134000
     38 HAF         -3.4910    -2.6520     1.1730 ha         1 BK7       0.135000
     39 HAH         -5.5390    -1.3170     0.7430 ha         1 BK7       0.147000
     40 HAI         -0.6920     1.1890    -0.2340 ha         1 BK7       0.142000
     41 HAJ         -7.2540     2.2160    -1.3430 h1         1 BK7       0.034200
     42 HAJA        -7.2420     2.7640     0.3380 h1         1 BK7       0.034200
     43 HAK          7.0600     3.5800     0.1110 h1         1 BK7       0.029200
     44 HAKA         6.5660     2.4770    -1.1740 h1         1 BK7       0.029200
     45 HAL          4.2850     2.7880    -2.1660 h1         1 BK7       0.029200
     46 HALA         3.2880     4.0990    -1.5340 h1         1 BK7       0.029200
     47 HAM          6.4520     1.3220     0.9690 hc         1 BK7       0.050700
     48 HAMA         5.4330     2.5850     1.6550 hc         1 BK7       0.050700
     49 HAN          3.0140     2.9200     0.6050 hc         1 BK7       0.050700
     50 HANA         2.5400     1.8730    -0.7280 hc         1 BK7       0.050700
     51 HAO          4.6780    -0.2540     1.6450 h1         1 BK7       0.071700
     52 HAOA         3.5300     0.9800     2.1480 h1         1 BK7       0.071700
     53 HNAS         5.5420     4.6800    -1.2880 hn         1 BK7       0.353800
     54 HBC          4.7220     0.7290    -0.6530 hc         1 BK7       0.060700
     55 CAO          3.8860     0.4070     1.2910 c3         1 BK7       0.071300
     56 OAT         -6.8570     0.7440     0.0640 os         1 BK7      -0.327900
@<TRIPOS>BOND
     1     1     2 ar  
     2     1     6 ar  
     3     2     3 ar  
     4     2    29 1   
     5     3     4 ar  
     6     4     5 ar  
     7     4    28 1   
     8     5     6 ar  
     9     5    24 1   
    10     6     8 1   
    11     7    15 1   
    12     7    30 1   
    13     7    31 1   
    14     7    32 1   
    15     8    33 1   
    16     8    34 1   
    17     9    11 ar  
    18     9    22 ar  
    19     9    35 1   
    20    10    12 ar  
    21    10    23 ar  
    22    10    36 1   
    23    11    26 ar  
    24    11    37 1   
    25    12    25 ar  
    26    12    38 1   
    27    13    22 ar  
    28    13    25 ar  
    29    13    39 1   
    30    14    23 ar  
    31    14    26 ar  
    32    14    40 1   
    33    15    41 1   
    34    15    42 1   
    35    15    56 1   
    36    16    18 1   
    37    16    21 1   
    38    16    43 1   
    39    16    44 1   
    40    17    19 1   
    41    17    21 1   
    42    17    45 1   
    43    17    46 1   
    44    18    27 1   
    45    18    47 1   
    46    18    48 1   
    47    19    27 1   
    48    19    49 1   
    49    19    50 1   
    50    20    24 2   
    51    20    28 1   
    52    21    53 1   
    53    22    56 1   
    54    23    24 1   
    55    25    26 ar  
    56    27    54 1   
    57    27    55 1   
    58    28    55 1   
    59    51    55 1   
    60    52    55 1   
@<TRIPOS>SUBSTRUCTURE
     1 BK7         1 TEMP              0 ****  ****    0 ROOT
