@<TRIPOS>MOLECULE
BK7
   56    60     1     0     0
SMALL
No Charge or Current Charge


@<TRIPOS>ATOM
      1 N1           2.3700    -3.6540    -1.2600 nb         1 BK7      -0.315000
      2 C2           3.5960    -3.2370    -0.8600 ca         1 BK7       0.195900
      3 N3           3.8740    -2.1320    -0.1290 nb         1 BK7      -0.234000
      4 C4           2.8060    -1.4030     0.2510 ca         1 BK7       0.155500
      5 C5           1.5340    -1.7780    -0.0740 ca         1 BK7      -0.383900
      6 C6           1.3320    -2.9050    -0.8640 ca         1 BK7       0.460900
      7 CAA         -9.3580     1.3350    -0.1140 c3         1 BK7      -0.095100
      8 NAB          0.1270    -3.2960    -1.3250 nv         1 BK7      -1.070900
      9 CAC         -4.9700     1.7290    -0.2700 ca         1 BK7      -0.182000
     10 CAD         -1.5600    -1.8670     0.8080 ca         1 BK7      -0.100000
     11 CAE         -3.5640     1.6860    -0.2680 ca         1 BK7      -0.056000
     12 CAF         -2.9640    -1.8250     0.8080 ca         1 BK7      -0.111000
     13 CAH         -5.0410    -0.5980     0.4400 ca         1 BK7      -0.157000
     14 CAI         -1.4860     0.4540     0.0880 ca         1 BK7      -0.049000
     15 CAJ         -7.8760     1.7220    -0.2440 c3         1 BK7       0.167600
     16 CAK          6.6770     2.8270    -0.1590 c6         1 BK7       0.159800
     17 CAL          4.6210     3.1560    -1.4830 c6         1 BK7       0.159800
     18 CAM          5.8950     2.0440     0.9260 c6         1 BK7      -0.071900
     19 CAN          3.7800     2.3810    -0.4390 c6         1 BK7      -0.071900
     20 NAR          1.3660     0.2200     1.0520 nc         1 BK7      -0.517100
     21 NAS          5.8020     3.7980    -0.8570 n7         1 BK7      -0.862400
     22 CAU         -5.7140     0.5830     0.0850 ca         1 BK7       0.155100
     23 CAV         -0.8090    -0.7380     0.4200 ca         1 BK7      -0.117900
     24 CAX          0.6640    -0.7580     0.4680 cd         1 BK7       0.436500
     25 CAY         -3.6360    -0.6450     0.4410 ca         1 BK7       0.007000
     26 CAZ         -2.8940     0.5000     0.0850 ca         1 BK7      -0.076000
     27 CBC          4.6470     1.3410     0.3250 c6         1 BK7      -0.082700
     28 NBD          2.6920    -0.2000     0.9300 na         1 BK7      -0.017100
     29 H2           4.4460    -3.8410    -1.1740 h5         1 BK7       0.044100
     30 HAA         -9.6020     0.5080    -0.7910 hc         1 BK7       0.048367
     31 HAAA        -9.5880     1.0280     0.9130 hc         1 BK7       0.048367
     32 HAAB        -9.9960     2.1880    -0.3680 hc         1 BK7       0.048367
     33 HNAB         0.1060    -3.9730    -2.0820 hn         1 BK7       0.505000
     34 HNAA        -0.6490    -2.6430    -1.2710 hn         1 BK7       0.505000
     35 HAC         -5.4610     2.6570    -0.5490 ha         1 BK7       0.118000
     36 HAD         -1.0540    -2.7770     1.1240 ha         1 BK7       0.119000
     37 HAE         -2.9990     2.5740    -0.5430 ha         1 BK7       0.116000
     38 HAF         -3.5290    -2.7070     1.1010 ha         1 BK7       0.117000
     39 HAH         -5.6180    -1.4770     0.7150 ha         1 BK7       0.129000
     40 HAI         -0.9160     1.3400    -0.1790 ha         1 BK7       0.124000
     41 HAJ         -7.6710     2.0380    -1.2760 h1         1 BK7       0.034200
     42 HAJA        -7.6570     2.5590     0.4320 h1         1 BK7       0.034200
     43 HAK          7.5190     3.3600     0.3060 h1         1 BK7       0.029200
     44 HAKA         7.0940     2.1190    -0.8910 h1         1 BK7       0.029200
     45 HAL          4.9570     2.4630    -2.2700 h1         1 BK7       0.029200
     46 HALA         3.9970     3.9250    -1.9620 h1         1 BK7       0.029200
     47 HAM          6.5600     1.3040     1.3920 hc         1 BK7       0.050700
     48 HAMA         5.5890     2.7360     1.7230 hc         1 BK7       0.050700
     49 HAN          3.3330     3.0910     0.2700 hc         1 BK7       0.050700
     50 HANA         2.9450     1.8820    -0.9500 hc         1 BK7       0.050700
     51 HAO          4.5190    -0.1060     1.9450 h1         1 BK7       0.071700
     52 HAOA         3.4790     1.3080     2.1620 h1         1 BK7       0.071700
     53 HNAS         6.3490     4.2700    -1.5890 hn         1 BK7       0.409000
     54 HBC          4.9930     0.5820    -0.3910 hc         1 BK7       0.060700
     55 CAO          3.8420     0.5820     1.4230 c3         1 BK7       0.100600
     56 OAT         -7.0930     0.5670     0.1010 os         1 BK7      -0.351100
@<TRIPOS>BOND
     1     1     2 ar  
     2     1     6 ar  
     3     2     3 ar  
     4     2    29 1   
     5     3     4 ar  
     6     4     5 ar  
     7     4    28 1   
     8     5     6 ar  
     9     5    24 1   
    10     6     8 1   
    11     7    15 1   
    12     7    30 1   
    13     7    31 1   
    14     7    32 1   
    15     8    33 1   
    16     8    34 1   
    17     9    11 ar  
    18     9    22 ar  
    19     9    35 1   
    20    10    12 ar  
    21    10    23 ar  
    22    10    36 1   
    23    11    26 ar  
    24    11    37 1   
    25    12    25 ar  
    26    12    38 1   
    27    13    22 ar  
    28    13    25 ar  
    29    13    39 1   
    30    14    23 ar  
    31    14    26 ar  
    32    14    40 1   
    33    15    41 1   
    34    15    42 1   
    35    15    56 1   
    36    16    18 1   
    37    16    21 1   
    38    16    43 1   
    39    16    44 1   
    40    17    19 1   
    41    17    21 1   
    42    17    45 1   
    43    17    46 1   
    44    18    27 1   
    45    18    47 1   
    46    18    48 1   
    47    19    27 1   
    48    19    49 1   
    49    19    50 1   
    50    20    24 2   
    51    20    28 1   
    52    21    53 1   
    53    22    56 1   
    54    23    24 1   
    55    25    26 ar  
    56    27    54 1   
    57    27    55 1   
    58    28    55 1   
    59    51    55 1   
    60    52    55 1   
@<TRIPOS>SUBSTRUCTURE
     1 BK7         1 TEMP              0 ****  ****    0 ROOT
