@<TRIPOS>MOLECULE
BK8
   57    61     1     0     0
SMALL
No Charge or Current Charge


@<TRIPOS>ATOM
      1 N2           0.4700     3.9830    -0.0680 nv         1 BK8      -0.918000
      2 C21         -0.8360     3.6610     0.1690 cc         1 BK8       0.137900
      3 C20         -1.3810     2.3730     0.4220 ca         1 BK8      -0.191000
      4 C10         -0.8490     1.0590     0.4090 cp         1 BK8       0.025000
      5 C9           0.5580     0.7480     0.0230 cp         1 BK8      -0.053000
      6 C22          1.0800     1.1580    -1.2280 ca         1 BK8      -0.089000
      7 C23          2.4000     0.8500    -1.5970 ca         1 BK8      -0.116000
      8 C4           3.2230     0.1170    -0.7230 ca         1 BK8       0.003000
      9 C3           4.5460    -0.1940    -1.0870 ca         1 BK8      -0.155000
     10 C8           1.3940    -0.0000     0.8850 ca         1 BK8      -0.075000
     11 C5           2.7180    -0.3120     0.5220 ca         1 BK8      -0.075000
     12 C6           3.5400    -1.0500     1.3940 ca         1 BK8      -0.059000
     13 C7           4.8620    -1.3590     1.0270 ca         1 BK8      -0.183000
     14 C2           5.3690    -0.9300    -0.2190 ca         1 BK8       0.150100
     15 O            6.6570    -1.2040    -0.6310 os         1 BK8      -0.351100
     16 C1           7.5790    -1.9490     0.1820 c3         1 BK8       0.167600
     17 C            8.9010    -2.0560    -0.5940 c3         1 BK8      -0.095100
     18 N3          -1.8290     4.6030     0.3410 na         1 BK8      -0.041500
     19 N4          -3.0370     4.0040     0.7140 nc         1 BK8      -0.295400
     20 C19         -2.6960     2.6440     0.7550 ca         1 BK8      -0.034000
     21 C18         -3.5640     1.6000     1.1080 ca         1 BK8      -0.096000
     22 C12         -3.0810     0.2740     1.1270 ca         1 BK8      -0.059300
     23 C11         -1.7340     0.0160     0.7830 ca         1 BK8      -0.117000
     24 C13         -4.0060    -0.8780     1.5130 c3         1 BK8       0.215100
     25 N           -4.2950    -1.8080     0.3950 n3         1 BK8      -0.725600
     26 C17         -5.0760    -3.0060     0.8340 c6         1 BK8       0.166800
     27 C16         -5.3500    -4.0040    -0.3410 c6         1 BK8       0.156800
     28 N1          -6.0070    -3.3480    -1.5080 n7         1 BK8      -0.864400
     29 C15         -5.2500    -2.1380    -1.9430 c6         1 BK8       0.156800
     30 C14         -4.9750    -1.1450    -0.7650 c6         1 BK8       0.166800
     31 H1           0.7840     4.9510    -0.1040 hn         1 BK8       0.461000
     32 H2           1.1780     3.2510    -0.0720 hn         1 BK8       0.461000
     33 H3           0.4470     1.7140    -1.9170 ha         1 BK8       0.127000
     34 H4           2.7790     1.1780    -2.5620 ha         1 BK8       0.116000
     35 H5           4.9410     0.1330    -2.0450 ha         1 BK8       0.128000
     36 H6           1.0060    -0.3310     1.8460 ha         1 BK8       0.117000
     37 H7           3.1560    -1.3840     2.3560 ha         1 BK8       0.113000
     38 H8           5.4730    -1.9290     1.7200 ha         1 BK8       0.116000
     39 H9           7.7570    -1.4390     1.1380 h1         1 BK8       0.033200
     40 H10          7.1920    -2.9570     0.3850 h1         1 BK8       0.033200
     41 H11          9.3110    -1.0600    -0.7970 hc         1 BK8       0.047700
     42 H12          9.6380    -2.6200    -0.0100 hc         1 BK8       0.047700
     43 H13          8.7480    -2.5750    -1.5480 hc         1 BK8       0.047700
     44 H14         -1.7420     5.6080     0.2410 hn         1 BK8       0.365000
     45 H15         -4.5970     1.8170     1.3680 ha         1 BK8       0.124000
     46 H16         -1.3740    -1.0100     0.7850 ha         1 BK8       0.128000
     47 H17         -3.5290    -1.4290     2.3350 h1         1 BK8       0.037700
     48 H18         -4.9450    -0.4690     1.9110 h1         1 BK8       0.037700
     49 H20         -4.5380    -3.5420     1.6290 h1         1 BK8       0.039200
     50 H21         -6.0420    -2.6920     1.2570 h1         1 BK8       0.039200
     51 H22         -4.3910    -4.4370    -0.6650 h1         1 BK8       0.036200
     52 H23         -5.9780    -4.8320     0.0190 h1         1 BK8       0.036200
     53 H24         -6.0540    -4.0160    -2.2890 hn         1 BK8       0.410000
     54 H26         -4.2860    -2.4520    -2.3700 h1         1 BK8       0.036200
     55 H27         -5.8080    -1.6200    -2.7370 h1         1 BK8       0.036200
     56 H28         -5.9330    -0.7110    -0.4410 h1         1 BK8       0.039200
     57 H29         -4.3630    -0.3160    -1.1500 h1         1 BK8       0.039200
@<TRIPOS>BOND
     1     1     2 1   
     2     1    31 1   
     3     1    32 1   
     4     2     3 2   
     5     2    18 1   
     6     3     4 ar  
     7     3    20 ar  
     8     4     5 1   
     9     4    23 ar  
    10     5     6 ar  
    11     5    10 ar  
    12     6     7 ar  
    13     6    33 1   
    14     7     8 ar  
    15     7    34 1   
    16     8     9 ar  
    17     8    11 ar  
    18     9    14 ar  
    19     9    35 1   
    20    10    11 ar  
    21    10    36 1   
    22    11    12 ar  
    23    12    13 ar  
    24    12    37 1   
    25    13    14 ar  
    26    13    38 1   
    27    14    15 1   
    28    15    16 1   
    29    16    17 1   
    30    16    39 1   
    31    16    40 1   
    32    17    41 1   
    33    17    42 1   
    34    17    43 1   
    35    18    19 1   
    36    18    44 1   
    37    19    20 2   
    38    20    21 ar  
    39    21    22 ar  
    40    21    45 1   
    41    22    23 ar  
    42    22    24 1   
    43    23    46 1   
    44    24    25 1   
    45    24    47 1   
    46    24    48 1   
    47    25    26 1   
    48    25    30 1   
    49    26    27 1   
    50    26    49 1   
    51    26    50 1   
    52    27    28 1   
    53    27    51 1   
    54    27    52 1   
    55    28    29 1   
    56    28    53 1   
    57    29    30 1   
    58    29    54 1   
    59    29    55 1   
    60    30    56 1   
    61    30    57 1   
@<TRIPOS>SUBSTRUCTURE
     1 BK8         1 TEMP              0 ****  ****    0 ROOT
