@<TRIPOS>MOLECULE
BK8
   57    61     1     0     0
SMALL
bcc


@<TRIPOS>ATOM
      1 N2           0.4170     4.1880    -0.0310 nv         1 BK8      -0.807600
      2 C21         -0.8500     3.8000     0.3100 cc         1 BK8       0.137900
      3 C20         -1.4310     2.5320     0.4780 ca         1 BK8      -0.191000
      4 C10         -0.9640     1.1920     0.4420 cp         1 BK8       0.025000
      5 C9           0.4210     0.8490     0.0640 cp         1 BK8      -0.053000
      6 C22          0.9580     1.3030    -1.1700 ca         1 BK8      -0.107000
      7 C23          2.2210     0.9620    -1.5600 ca         1 BK8      -0.134000
      8 C4           3.0400     0.1440    -0.7420 ca         1 BK8       0.003000
      9 C3           4.3430    -0.2260    -1.1210 ca         1 BK8      -0.173000
     10 C8           1.1990     0.0540     0.8690 ca         1 BK8      -0.093000
     11 C5           2.5110    -0.3130     0.4930 ca         1 BK8      -0.075000
     12 C6           3.3250    -1.1270     1.3080 ca         1 BK8      -0.077000
     13 C7           4.5910    -1.4810     0.9270 ca         1 BK8      -0.201000
     14 C2           5.1140    -1.0280    -0.3080 ca         1 BK8       0.150100
     15 O            6.3460    -1.3390    -0.7480 os         1 BK8      -0.327900
     16 C1           7.1840    -2.1740     0.0420 c3         1 BK8       0.144400
     17 C            8.4800    -2.3740    -0.7080 c3         1 BK8      -0.095100
     18 N3          -1.8450     4.6710     0.5010 na         1 BK8       0.008800
     19 N4          -3.0390     4.1250     0.8030 nc         1 BK8      -0.295400
     20 C19         -2.7910     2.8210     0.7970 ca         1 BK8      -0.034000
     21 C18         -3.6910     1.7660     1.0870 ca         1 BK8      -0.114000
     22 C12         -3.2240     0.4830     1.0750 ca         1 BK8      -0.059300
     23 C11         -1.8650     0.2050     0.7480 ca         1 BK8      -0.135000
     24 C13         -4.1280    -0.6730     1.4130 c3         1 BK8       0.215100
     25 N           -4.0980    -1.7080     0.4020 n3         1 BK8      -0.725600
     26 C17         -4.7470    -2.9240     0.8550 c6         1 BK8       0.166800
     27 C16         -4.6280    -4.0110    -0.1970 c6         1 BK8       0.156800
     28 N1          -5.2160    -3.5490    -1.4390 n7         1 BK8      -0.809200
     29 C15         -4.5390    -2.3540    -1.9070 c6         1 BK8       0.156800
     30 C14         -4.6540    -1.2610    -0.8620 c6         1 BK8       0.166800
     31 H1           0.6830     5.1140     0.2670 hn         1 BK8       0.405800
     32 H2           1.1340     3.5140     0.1850 hn         1 BK8       0.405800
     33 H3           0.3440     1.9130    -1.8210 ha         1 BK8       0.145000
     34 H4           2.6050     1.3100    -2.5110 ha         1 BK8       0.134000
     35 H5           4.7450     0.1220    -2.0660 ha         1 BK8       0.146000
     36 H6           0.8110    -0.2960     1.8190 ha         1 BK8       0.135000
     37 H7           2.9370    -1.4830     2.2550 ha         1 BK8       0.131000
     38 H8           5.1760    -2.1110     1.5830 ha         1 BK8       0.134000
     39 H9           7.3750    -1.7110     1.0150 h1         1 BK8       0.033200
     40 H10          6.6990    -3.1390     0.2230 h1         1 BK8       0.033200
     41 H11          8.9900    -1.4260    -0.8810 hc         1 BK8       0.047700
     42 H12          9.1420    -3.0090    -0.1210 hc         1 BK8       0.047700
     43 H13          8.3130    -2.8600    -1.6690 hc         1 BK8       0.047700
     44 H14         -1.7660     5.6760     0.4540 hn         1 BK8       0.314700
     45 H15         -4.7270     1.9820     1.3190 ha         1 BK8       0.142000
     46 H16         -1.5540    -0.8320     0.7000 ha         1 BK8       0.146000
     47 H17         -3.7880    -1.1180     2.3550 h1         1 BK8       0.037700
     48 H18         -5.1480    -0.2990     1.6000 h1         1 BK8       0.037700
     49 H20         -4.2680    -3.2580     1.7790 h1         1 BK8       0.039200
     50 H21         -5.8150    -2.7590     1.0830 h1         1 BK8       0.039200
     51 H22         -3.5650    -4.2810    -0.3030 h1         1 BK8       0.036200
     52 H23         -5.1560    -4.9030     0.1460 h1         1 BK8       0.036200
     53 H24         -5.1540    -4.2760    -2.1390 hn         1 BK8       0.354800
     54 H26         -3.4720    -2.5250    -2.1180 h1         1 BK8       0.036200
     55 H27         -5.0030    -2.0140    -2.8350 h1         1 BK8       0.036200
     56 H28         -5.7130    -0.9650    -0.7550 h1         1 BK8       0.039200
     57 H29         -4.1080    -0.3800    -1.2040 h1         1 BK8       0.039200
@<TRIPOS>BOND
     1     1     2 1   
     2     1    31 1   
     3     1    32 1   
     4     2     3 2   
     5     2    18 1   
     6     3     4 ar  
     7     3    20 ar  
     8     4     5 1   
     9     4    23 ar  
    10     5     6 ar  
    11     5    10 ar  
    12     6     7 ar  
    13     6    33 1   
    14     7     8 ar  
    15     7    34 1   
    16     8     9 ar  
    17     8    11 ar  
    18     9    14 ar  
    19     9    35 1   
    20    10    11 ar  
    21    10    36 1   
    22    11    12 ar  
    23    12    13 ar  
    24    12    37 1   
    25    13    14 ar  
    26    13    38 1   
    27    14    15 1   
    28    15    16 1   
    29    16    17 1   
    30    16    39 1   
    31    16    40 1   
    32    17    41 1   
    33    17    42 1   
    34    17    43 1   
    35    18    19 1   
    36    18    44 1   
    37    19    20 2   
    38    20    21 ar  
    39    21    22 ar  
    40    21    45 1   
    41    22    23 ar  
    42    22    24 1   
    43    23    46 1   
    44    24    25 1   
    45    24    47 1   
    46    24    48 1   
    47    25    26 1   
    48    25    30 1   
    49    26    27 1   
    50    26    49 1   
    51    26    50 1   
    52    27    28 1   
    53    27    51 1   
    54    27    52 1   
    55    28    29 1   
    56    28    53 1   
    57    29    30 1   
    58    29    54 1   
    59    29    55 1   
    60    30    56 1   
    61    30    57 1   
@<TRIPOS>SUBSTRUCTURE
     1 BK8         1 TEMP              0 ****  ****    0 ROOT
