@<TRIPOS>MOLECULE
BK9
   23    24     1     0     0
SMALL
No Charge or Current Charge


@<TRIPOS>ATOM
      1 N1          -0.9760     1.6930    -0.0080 nb         1 BK9      -0.296000
      2 C2           0.1340     2.4540    -0.0060 ca         1 BK9       0.164900
      3 N3           1.4100     2.0180    -0.0030 nb         1 BK9      -0.193000
      4 C4           1.6070     0.6840    -0.0010 ca         1 BK9       0.041000
      5 C5           0.5030    -0.2040    -0.0030 ca         1 BK9      -0.151000
      6 C6          -0.7970     0.3540    -0.0070 ca         1 BK9       0.382300
      7 CAA         -4.1890    -1.1810    -0.0140 c3         1 BK9      -0.100100
      8 CAB          3.1210    -1.2360     0.0040 ca         1 BK9      -0.079000
      9 CAC          2.0240    -2.1110     0.0020 ca         1 BK9      -0.129000
     10 CAE          2.9110     0.1540     0.0020 ca         1 BK9      -0.100000
     11 CAF          0.7160    -1.6000    -0.0020 ca         1 BK9      -0.050000
     12 CAG         -3.2340     0.0240    -0.0120 c3         1 BK9       0.172600
     13 OAJ         -1.8890    -0.4920    -0.0090 os         1 BK9      -0.462300
     14 H2          -0.0120     3.5330    -0.0070 h5         1 BK9       0.047100
     15 HA1         -4.0320    -1.7990     0.8780 hc         1 BK9       0.048700
     16 HA2         -5.2300    -0.8380    -0.0160 hc         1 BK9       0.048700
     17 HA3         -4.0280    -1.8000    -0.9040 hc         1 BK9       0.048700
     18 HAB          4.1350    -1.6320     0.0070 ha         1 BK9       0.117000
     19 HAC          2.1870    -3.1870     0.0030 ha         1 BK9       0.118000
     20 HAE          3.7680     0.8250     0.0040 ha         1 BK9       0.135000
     21 HAF         -0.1240    -2.2920    -0.0040 ha         1 BK9       0.129000
     22 HAG1        -3.4170     0.6370    -0.9050 h1         1 BK9       0.054200
     23 HAG2        -3.4210     0.6380     0.8790 h1         1 BK9       0.054200
@<TRIPOS>BOND
     1     1     2 ar  
     2     1     6 ar  
     3     2     3 ar  
     4     2    14 1   
     5     3     4 ar  
     6     4     5 ar  
     7     4    10 ar  
     8     5     6 ar  
     9     5    11 ar  
    10     6    13 1   
    11     7    12 1   
    12     7    15 1   
    13     7    16 1   
    14     7    17 1   
    15     8     9 ar  
    16     8    10 ar  
    17     8    18 1   
    18     9    11 ar  
    19     9    19 1   
    20    10    20 1   
    21    11    21 1   
    22    12    13 1   
    23    12    22 1   
    24    12    23 1   
@<TRIPOS>SUBSTRUCTURE
     1 BK9         1 TEMP              0 ****  ****    0 ROOT
