@<TRIPOS>MOLECULE
BK9
   23    24     1     0     0
SMALL
abcg2


@<TRIPOS>ATOM
      1 N1          -1.0080     1.6070    -0.0090 nb         1 BK9      -0.296000
      2 C2           0.0950     2.3830    -0.0080 ca         1 BK9       0.164900
      3 N3           1.3340     1.9960    -0.0040 nb         1 BK9      -0.193000
      4 C4           1.5490     0.6510    -0.0010 ca         1 BK9       0.041000
      5 C5           0.4790    -0.2670    -0.0030 ca         1 BK9      -0.151000
      6 C6          -0.8250     0.3170    -0.0070 ca         1 BK9       0.382300
      7 CAA         -4.1470    -1.1210    -0.0150 c3         1 BK9      -0.100100
      8 CAB          3.0970    -1.1930     0.0040 ca         1 BK9      -0.079000
      9 CAC          2.0250    -2.1050     0.0020 ca         1 BK9      -0.129000
     10 CAE          2.8680     0.1600     0.0030 ca         1 BK9      -0.100000
     11 CAF          0.7310    -1.6510    -0.0020 ca         1 BK9      -0.050000
     12 CAG         -3.1780     0.0340    -0.0100 c3         1 BK9       0.172600
     13 OAJ         -1.8480    -0.5090    -0.0070 os         1 BK9      -0.462300
     14 H2          -0.0910     3.4520    -0.0100 h5         1 BK9       0.047100
     15 HA1         -4.0340    -1.7470     0.8710 hc         1 BK9       0.048700
     16 HA2         -5.1630    -0.7280    -0.0170 hc         1 BK9       0.048700
     17 HA3         -4.0290    -1.7440    -0.9010 hc         1 BK9       0.048700
     18 HAB          4.1130    -1.5660     0.0070 ha         1 BK9       0.117000
     19 HAC          2.2260    -3.1670     0.0030 ha         1 BK9       0.118000
     20 HAE          3.6860     0.8680     0.0040 ha         1 BK9       0.135000
     21 HAF         -0.0900    -2.3550    -0.0040 ha         1 BK9       0.129000
     22 HAG1        -3.3100     0.6650    -0.8910 h1         1 BK9       0.054200
     23 HAG2        -3.3150     0.6620     0.8710 h1         1 BK9       0.054200
@<TRIPOS>BOND
     1     1     2 ar  
     2     1     6 ar  
     3     2     3 ar  
     4     2    14 1   
     5     3     4 ar  
     6     4     5 ar  
     7     4    10 ar  
     8     5     6 ar  
     9     5    11 ar  
    10     6    13 1   
    11     7    12 1   
    12     7    15 1   
    13     7    16 1   
    14     7    17 1   
    15     8     9 ar  
    16     8    10 ar  
    17     8    18 1   
    18     9    11 ar  
    19     9    19 1   
    20    10    20 1   
    21    11    21 1   
    22    12    13 1   
    23    12    22 1   
    24    12    23 1   
@<TRIPOS>SUBSTRUCTURE
     1 BK9         1 TEMP              0 ****  ****    0 ROOT
