@<TRIPOS>MOLECULE
BKA
   21    20     1     0     0
SMALL
abcg2


@<TRIPOS>ATOM
      1 O3           0.4240    -1.1710    -0.2340 o          1 BKA      -0.525100
      2 C3           0.3140     0.0240    -0.0720 c          1 BKA       0.587100
      3 C2           1.5080     0.9460    -0.0230 c3         1 BKA      -0.305400
      4 C1           2.8390     0.1770     0.0460 c          1 BKA       0.735000
      5 O1           3.2010    -0.1880     1.1810 o          1 BKA      -0.727000
      6 O2           3.4280    -0.0280    -1.0320 o          1 BKA      -0.727000
      7 C4          -1.0300     0.6930     0.0820 c3         1 BKA      -0.196400
      8 C5          -2.2360    -0.2140    -0.0900 c3         1 BKA      -0.064400
      9 C6          -3.5500     0.5410     0.0770 c3         1 BKA      -0.078400
     10 C7          -4.7670    -0.3570    -0.0900 c3         1 BKA      -0.086100
     11 H2           1.4510     1.5820    -0.9140 hc         1 BKA       0.035200
     12 H2A          1.3870     1.6150     0.8340 hc         1 BKA       0.035200
     13 H4          -1.0440     1.1690     1.0700 hc         1 BKA       0.045700
     14 H4A         -1.0690     1.5290    -0.6260 hc         1 BKA       0.045700
     15 H5          -2.2120    -0.6820    -1.0790 hc         1 BKA       0.046700
     16 H5A         -2.1950    -1.0310     0.6360 hc         1 BKA       0.046700
     17 H6          -3.5740     1.0140     1.0630 hc         1 BKA       0.029700
     18 H6A         -3.5950     1.3570    -0.6510 hc         1 BKA       0.029700
     19 H7          -5.6960     0.2040     0.0110 hc         1 BKA       0.025033
     20 H7A         -4.7740    -0.8320    -1.0730 hc         1 BKA       0.025033
     21 H7B         -4.7770    -1.1520     0.6580 hc         1 BKA       0.025033
@<TRIPOS>BOND
     1     1     2 2   
     2     2     3 1   
     3     2     7 1   
     4     3     4 1   
     5     3    11 1   
     6     3    12 1   
     7     4     5 1   
     8     4     6 1   
     9     7     8 1   
    10     7    13 1   
    11     7    14 1   
    12     8     9 1   
    13     8    15 1   
    14     8    16 1   
    15     9    10 1   
    16     9    17 1   
    17     9    18 1   
    18    10    19 1   
    19    10    20 1   
    20    10    21 1   
@<TRIPOS>SUBSTRUCTURE
     1 BKA         1 TEMP              0 ****  ****    0 ROOT
