@<TRIPOS>MOLECULE
BKA
   21    20     1     0     0
SMALL
No Charge or Current Charge


@<TRIPOS>ATOM
      1 O3           0.4760     0.3080    -2.1980 o          1 BKA      -0.525100
      2 C3           0.3470     0.7430    -1.0610 c          1 BKA       0.587100
      3 C2           1.5420     0.8720    -0.1270 c3         1 BKA      -0.305400
      4 C1           1.7240    -0.4980     0.4860 c          1 BKA       0.735000
      5 O1           1.1200    -0.7480     1.5160 o          1 BKA      -0.727000
      6 O2           2.4280    -1.3030    -0.1010 o          1 BKA      -0.727000
      7 C4          -1.0240     1.2330    -0.5560 c3         1 BKA      -0.196400
      8 C5          -1.9630     0.0540    -0.2090 c3         1 BKA      -0.064400
      9 C6          -3.3560     0.5150     0.2710 c3         1 BKA      -0.078400
     10 C7          -4.2950    -0.6570     0.6160 c3         1 BKA      -0.086100
     11 H2           2.4040     1.1260    -0.7550 hc         1 BKA       0.035200
     12 H2A          1.2790     1.5910     0.6580 hc         1 BKA       0.035200
     13 H4          -0.9030     1.8440     0.3460 hc         1 BKA       0.045700
     14 H4A         -1.4960     1.8290    -1.3460 hc         1 BKA       0.045700
     15 H5          -2.0820    -0.5860    -1.0930 hc         1 BKA       0.046700
     16 H5A         -1.5010    -0.5630     0.5710 hc         1 BKA       0.046700
     17 H6          -3.2430     1.1530     1.1570 hc         1 BKA       0.029700
     18 H6A         -3.8250     1.1290    -0.5080 hc         1 BKA       0.029700
     19 H7          -5.2690    -0.2800     0.9510 hc         1 BKA       0.025033
     20 H7A         -4.4580    -1.2950    -0.2610 hc         1 BKA       0.025033
     21 H7B         -3.8700    -1.2710     1.4180 hc         1 BKA       0.025033
@<TRIPOS>BOND
     1     1     2 2   
     2     2     3 1   
     3     2     7 1   
     4     3     4 1   
     5     3    11 1   
     6     3    12 1   
     7     4     5 1   
     8     4     6 1   
     9     7     8 1   
    10     7    13 1   
    11     7    14 1   
    12     8     9 1   
    13     8    15 1   
    14     8    16 1   
    15     9    10 1   
    16     9    17 1   
    17     9    18 1   
    18    10    19 1   
    19    10    20 1   
    20    10    21 1   
@<TRIPOS>SUBSTRUCTURE
     1 BKA         1 TEMP              0 ****  ****    0 ROOT
