@<TRIPOS>MOLECULE
BKB
   69    72     1     0     0
SMALL
No Charge or Current Charge


@<TRIPOS>ATOM
      1 C13         35.2570    10.8010     1.8570 ca         1 BKB       0.014000
      2 C15         32.9030    10.2430     1.7410 ca         1 BKB       0.055000
      3 C17         34.5380     8.6480     0.9370 ca         1 BKB       0.024000
      4 C24         28.4510    12.3170     2.8790 c3         1 BKB       0.109000
      5 C26         27.1880    14.4750     2.2730 c3         1 BKB      -0.063400
      6 C28         28.0050    16.4420     0.8210 c          1 BKB       0.600100
      7 C01         38.9000     7.0230     7.4000 ca         1 BKB      -0.150000
      8 C02         39.4770     6.8120     6.1350 ca         1 BKB       0.314000
      9 C04         39.8070     8.2920     4.1160 c6         1 BKB       0.201800
     10 C05         39.2770     8.3970     2.6530 c6         1 BKB       0.181300
     11 C07         36.9980     7.9000     3.4060 c6         1 BKB       0.181300
     12 C08         37.4920     7.7790     4.8810 c6         1 BKB       0.201800
     13 C12         35.5700     9.5490     1.2790 ca         1 BKB      -0.351500
     14 C14         33.9140    11.1550     2.0910 ca         1 BKB      -0.150000
     15 C16         33.2070     9.0210     1.1800 ca         1 BKB      -0.171300
     16 C18         31.9740     8.1890     0.8820 c5         1 BKB      -0.035100
     17 C19         30.7940     9.1270     1.3660 c5         1 BKB       0.095000
     18 C25         28.1940    13.3960     1.8080 c3         1 BKB      -0.111400
     19 C27         26.8270    15.5300     1.1950 c3         1 BKB      -0.164400
     20 C32         40.6070     5.9790     6.0300 ca         1 BKB      -0.117000
     21 C33         41.1680     5.3520     7.1650 ca         1 BKB      -0.154300
     22 C34         40.5790     5.5880     8.4260 ca         1 BKB      -0.096000
     23 C35         39.4510     6.4160     8.5370 ca         1 BKB       0.147000
     24 C37         42.4030     4.4540     7.0270 c3         1 BKB       0.356300
     25 F38         42.4030     3.7600     5.8660 f          1 BKB      -0.112000
     26 F39         42.4950     3.5410     8.0220 f          1 BKB      -0.112000
     27 F40         43.5430     5.1810     7.0530 f          1 BKB      -0.112000
     28 N03         38.9430     7.4200     4.9740 nh         1 BKB      -0.794400
     29 N06         37.8480     8.8140     2.5850 n3         1 BKB      -0.706500
     30 N20         31.4950    10.3450     1.8690 n          1 BKB      -0.236400
     31 N23         29.3920    11.2960     2.4140 ns         1 BKB      -0.509900
     32 N30         27.9750    17.7060     1.3980 ns         1 BKB      -0.385400
     33 O10         37.3710     7.8350     0.2740 o          1 BKB      -0.533500
     34 O11         37.9880    10.3140     0.5530 o          1 BKB      -0.533500
     35 O22         31.2940    12.4580     2.8160 o          1 BKB      -0.619100
     36 O29         28.8880    16.0950     0.0460 o          1 BKB      -0.567100
     37 O31         28.8460    18.7650     0.9300 oh         1 BKB      -0.428100
     38 S09         37.2900     9.1050     1.0050 sy         1 BKB       1.156600
     39 Cl36        38.7280     6.7010    10.1140 cl         1 BKB      -0.191000
     40 H1          36.0500    11.4950     2.1300 ha         1 BKB       0.137000
     41 H2          34.7590     7.6770     0.4960 ha         1 BKB       0.131000
     42 H3          28.8460    12.7850     3.7910 h1         1 BKB       0.058700
     43 H4          27.5030    11.8260     3.1380 h1         1 BKB       0.058700
     44 H5          27.5860    14.9850     3.1600 hc         1 BKB       0.044200
     45 H6          26.2630    13.9760     2.5900 hc         1 BKB       0.044200
     46 H7          38.0360     7.6690     7.5130 ha         1 BKB       0.135000
     47 H8          40.8380     7.9130     4.0840 h1         1 BKB       0.053950
     48 H9          39.8490     9.3040     4.5460 h1         1 BKB       0.053950
     49 H10         39.4100     7.4190     2.1680 h1         1 BKB       0.064450
     50 H11         39.9140     9.1110     2.1110 h1         1 BKB       0.064450
     51 H12         35.9560     8.2460     3.4380 h1         1 BKB       0.064450
     52 H13         36.9870     6.8940     2.9610 h1         1 BKB       0.064450
     53 H14         37.3140     8.7390     5.3880 h1         1 BKB       0.053950
     54 H15         36.8770     7.0210     5.3880 h1         1 BKB       0.053950
     55 H16         33.6900    12.1190     2.5360 ha         1 BKB       0.157000
     56 H17         31.9790     7.2390     1.4280 hc         1 BKB       0.065700
     57 H18         30.1200     9.3720     0.5350 h1         1 BKB       0.051200
     58 H19         27.8150    12.9140     0.8990 hc         1 BKB       0.057700
     59 H20         29.1480    13.8700     1.5470 hc         1 BKB       0.057700
     60 H21         26.0120    16.1400     1.6010 hc         1 BKB       0.068700
     61 H22         26.4820    15.0070     0.2950 hc         1 BKB       0.068700
     62 H23         41.0440     5.8110     5.0500 ha         1 BKB       0.133000
     63 H24         40.9900     5.1350     9.3260 ha         1 BKB       0.148000
     64 H25         29.0170    10.4280     2.0580 hn         1 BKB       0.313500
     65 H26         27.1440    18.0010     1.9100 hn         1 BKB       0.330500
     66 H27         29.2510    19.1170     1.7580 ho         1 BKB       0.450000
     67 H28         31.8850     7.9520    -0.1840 hc         1 BKB       0.065700
     68 H29         30.2100     8.6470     2.1620 h1         1 BKB       0.051200
     69 C21         30.7650    11.4400     2.3950 c          1 BKB       0.666100
@<TRIPOS>BOND
     1     1    13 ar  
     2     1    14 ar  
     3     1    40 1   
     4     2    14 ar  
     5     2    15 ar  
     6     2    30 1   
     7     3    13 ar  
     8     3    15 ar  
     9     3    41 1   
    10     4    18 1   
    11     4    31 1   
    12     4    42 1   
    13     4    43 1   
    14     5    18 1   
    15     5    19 1   
    16     5    44 1   
    17     5    45 1   
    18     6    19 1   
    19     6    32 1   
    20     6    36 2   
    21     7     8 ar  
    22     7    23 ar  
    23     7    46 1   
    24     8    20 ar  
    25     8    28 1   
    26     9    10 1   
    27     9    28 1   
    28     9    47 1   
    29     9    48 1   
    30    10    29 1   
    31    10    49 1   
    32    10    50 1   
    33    11    12 1   
    34    11    29 1   
    35    11    51 1   
    36    11    52 1   
    37    12    28 1   
    38    12    53 1   
    39    12    54 1   
    40    13    38 1   
    41    14    55 1   
    42    15    16 1   
    43    16    17 1   
    44    16    56 1   
    45    16    67 1   
    46    17    30 1   
    47    17    57 1   
    48    17    68 1   
    49    18    58 1   
    50    18    59 1   
    51    19    60 1   
    52    19    61 1   
    53    20    21 ar  
    54    20    62 1   
    55    21    22 ar  
    56    21    24 1   
    57    22    23 ar  
    58    22    63 1   
    59    23    39 1   
    60    24    25 1   
    61    24    26 1   
    62    24    27 1   
    63    29    38 1   
    64    30    69 1   
    65    31    64 1   
    66    31    69 1   
    67    32    37 1   
    68    32    65 1   
    69    33    38 2   
    70    34    38 2   
    71    35    69 2   
    72    37    66 1   
@<TRIPOS>SUBSTRUCTURE
     1 BKB         1 TEMP              0 ****  ****    0 ROOT
