@<TRIPOS>MOLECULE
BKB
   69    72     1     0     0
SMALL
abcg2


@<TRIPOS>ATOM
      1 C13         35.3950    11.7010     2.4990 ca         1 BKB       0.014000
      2 C15         33.3080    10.6620     1.9770 ca         1 BKB       0.055000
      3 C17         35.3560     9.7220     1.1070 ca         1 BKB       0.024000
      4 C24         28.5770    11.5750     2.7640 c3         1 BKB       0.109000
      5 C26         27.0740    13.5140     2.1670 c3         1 BKB      -0.063400
      6 C28         27.6480    15.2530     0.4080 c          1 BKB       0.600100
      7 C01         39.8300     7.6050     7.2050 ca         1 BKB      -0.150000
      8 C02         39.2540     7.1080     6.0290 ca         1 BKB       0.314000
      9 C04         39.0960     7.5690     3.6390 c6         1 BKB       0.201800
     10 C05         38.1890     8.3090     2.6760 c6         1 BKB       0.181300
     11 C07         38.0170    10.1230     4.2450 c6         1 BKB       0.181300
     12 C08         38.9060     9.3790     5.2230 c6         1 BKB       0.201800
     13 C12         36.0630    10.7390     1.7530 ca         1 BKB      -0.351500
     14 C14         34.0130    11.6780     2.6180 ca         1 BKB      -0.150000
     15 C16         33.9880     9.6910     1.2320 ca         1 BKB      -0.171300
     16 C18         33.0180     8.7150     0.6400 c5         1 BKB      -0.035100
     17 C19         31.6550     9.1950     1.1620 c5         1 BKB       0.095000
     18 C25         28.1840    12.5860     1.6930 c3         1 BKB      -0.111400
     19 C27         26.5510    14.4460     1.0690 c3         1 BKB      -0.164400
     20 C32         39.0950     5.7180     5.9170 ca         1 BKB      -0.117000
     21 C33         39.5000     4.8750     6.9350 ca         1 BKB      -0.154300
     22 C34         40.0620     5.3640     8.1090 ca         1 BKB      -0.096000
     23 C35         40.2040     6.7350     8.2150 ca         1 BKB       0.147000
     24 C37         39.3680     3.3940     6.7430 c3         1 BKB       0.356300
     25 F38         38.2800     3.0710     6.0350 f          1 BKB      -0.112000
     26 F39         39.2930     2.7360     7.9040 f          1 BKB      -0.112000
     27 F40         40.4220     2.8920     6.0830 f          1 BKB      -0.112000
     28 N03         38.8190     7.9480     5.0170 nh         1 BKB      -0.794400
     29 N06         38.3610     9.7430     2.8790 n3         1 BKB      -0.706500
     30 N20         31.9460    10.4100     1.9370 n          1 BKB      -0.236400
     31 N23         29.7050    10.7520     2.3830 ns         1 BKB      -0.509900
     32 N30         28.1800    16.1910     1.2220 ns         1 BKB      -0.385400
     33 O10         38.2460    10.1790     0.4160 o          1 BKB      -0.533500
     34 O11         38.2800    12.0910     2.0440 o          1 BKB      -0.533500
     35 O22         31.2490    12.2370     3.1040 o          1 BKB      -0.619100
     36 O29         28.0530    15.0450    -0.7220 o          1 BKB      -0.567100
     37 O31         29.0830    17.0880     0.7320 oh         1 BKB      -0.428100
     38 S09         37.8240    10.7600     1.6800 sy         1 BKB       1.156600
     39 CL36        40.8990     7.3940     9.6590 cl         1 BKB      -0.191000
     40 H1          35.9440    12.4910     2.9930 ha         1 BKB       0.137000
     41 H2          35.8630     8.9730     0.5100 ha         1 BKB       0.131000
     42 H3          28.8120    12.0880     3.6970 h1         1 BKB       0.058700
     43 H4          27.7410    10.9070     2.9750 h1         1 BKB       0.058700
     44 H5          27.4280    14.1010     3.0190 hc         1 BKB       0.044200
     45 H6          26.2300    12.9250     2.5360 hc         1 BKB       0.044200
     46 H7          40.0030     8.6620     7.3430 ha         1 BKB       0.135000
     47 H8          38.9280     6.5060     3.4920 h1         1 BKB       0.053950
     48 H9          40.1430     7.7770     3.3830 h1         1 BKB       0.053950
     49 H10         37.1470     8.0050     2.8410 h1         1 BKB       0.064450
     50 H11         38.4700     8.0370     1.6610 h1         1 BKB       0.064450
     51 H12         38.1730    11.1900     4.3900 h1         1 BKB       0.064450
     52 H13         36.9650     9.8960     4.4600 h1         1 BKB       0.064450
     53 H14         39.9400     9.7420     5.1320 h1         1 BKB       0.053950
     54 H15         38.5510     9.6310     6.2230 h1         1 BKB       0.053950
     55 H16         33.5170    12.4390     3.1950 ha         1 BKB       0.157000
     56 H17         33.2290     7.6940     0.9570 hc         1 BKB       0.065700
     57 H18         30.9740     9.4240     0.3410 h1         1 BKB       0.051200
     58 H19         27.8660    12.0540     0.7910 hc         1 BKB       0.057700
     59 H20         29.0670    13.1700     1.4200 hc         1 BKB       0.057700
     60 H21         25.7940    15.1140     1.4890 hc         1 BKB       0.068700
     61 H22         26.0670    13.8580     0.2890 hc         1 BKB       0.068700
     62 H23         38.6290     5.3020     5.0350 ha         1 BKB       0.133000
     63 H24         40.3730     4.7150     8.9130 ha         1 BKB       0.148000
     64 H25         29.5000     9.9490     1.8130 hn         1 BKB       0.313500
     65 H26         27.7120    16.4880     2.0670 hn         1 BKB       0.330500
     66 H27         29.9520    16.7630     1.0000 ho         1 BKB       0.450000
     67 H28         33.0550     8.7280    -0.4490 hc         1 BKB       0.065700
     68 H29         31.1830     8.4460     1.7990 h1         1 BKB       0.051200
     69 C21         30.9730    11.2040     2.5090 c          1 BKB       0.666100
@<TRIPOS>BOND
     1     1    13 ar  
     2     1    14 ar  
     3     1    40 1   
     4     2    14 ar  
     5     2    15 ar  
     6     2    30 1   
     7     3    13 ar  
     8     3    15 ar  
     9     3    41 1   
    10     4    18 1   
    11     4    31 1   
    12     4    42 1   
    13     4    43 1   
    14     5    18 1   
    15     5    19 1   
    16     5    44 1   
    17     5    45 1   
    18     6    19 1   
    19     6    32 1   
    20     6    36 2   
    21     7     8 ar  
    22     7    23 ar  
    23     7    46 1   
    24     8    20 ar  
    25     8    28 1   
    26     9    10 1   
    27     9    28 1   
    28     9    47 1   
    29     9    48 1   
    30    10    29 1   
    31    10    49 1   
    32    10    50 1   
    33    11    12 1   
    34    11    29 1   
    35    11    51 1   
    36    11    52 1   
    37    12    28 1   
    38    12    53 1   
    39    12    54 1   
    40    13    38 1   
    41    14    55 1   
    42    15    16 1   
    43    16    17 1   
    44    16    56 1   
    45    16    67 1   
    46    17    30 1   
    47    17    57 1   
    48    17    68 1   
    49    18    58 1   
    50    18    59 1   
    51    19    60 1   
    52    19    61 1   
    53    20    21 ar  
    54    20    62 1   
    55    21    22 ar  
    56    21    24 1   
    57    22    23 ar  
    58    22    63 1   
    59    23    39 1   
    60    24    25 1   
    61    24    26 1   
    62    24    27 1   
    63    29    38 1   
    64    30    69 1   
    65    31    64 1   
    66    31    69 1   
    67    32    37 1   
    68    32    65 1   
    69    33    38 2   
    70    34    38 2   
    71    35    69 2   
    72    37    66 1   
@<TRIPOS>SUBSTRUCTURE
     1 BKB         1 TEMP              0 ****  ****    0 ROOT
