@<TRIPOS>MOLECULE
BKD
   47    51     1     0     0
SMALL
bcc


@<TRIPOS>ATOM
      1 C14         -2.4880     4.5950     0.7970 cx         1 BKD      -0.119900
      2 C5          -3.2580    -1.7840    -1.0700 c6         1 BKD       0.098000
      3 C6          -3.2350    -0.2760    -0.8180 c6         1 BKD      -0.035100
      4 C7          -1.8070     0.1380    -0.7760 cc         1 BKD      -0.083600
      5 C8          -0.7350    -0.7150    -0.6670 cd         1 BKD      -0.294600
      6 C9           0.3980     0.1320    -0.6560 cd         1 BKD       0.393800
      7 C12         -2.0480     2.6310    -0.8270 c3         1 BKD       0.086300
      8 C13         -2.3400     3.1230     0.5650 cx         1 BKD      -0.157700
      9 C1          -1.6680    -3.6800     1.8210 c3         1 BKD      -0.177100
     10 C15         -1.2840     3.8700     1.3180 cx         1 BKD      -0.119900
     11 C16          1.8100    -0.2330    -0.5510 ca         1 BKD      -0.063500
     12 C17          2.2570    -1.4680    -1.0030 ca         1 BKD      -0.152000
     13 C18          3.6010    -1.8550    -0.9060 ca         1 BKD      -0.115000
     14 C19          4.5490    -1.0200    -0.3520 ca         1 BKD      -0.142000
     15 C2          -2.7220    -3.0660     0.9300 c          1 BKD       0.675100
     16 C20          4.1120     0.2230     0.1020 ca         1 BKD      -0.053200
     17 C21          2.7640     0.6410     0.0130 ca         1 BKD      -0.075800
     18 C22          2.7040     1.9480     0.5900 cc         1 BKD      -0.170200
     19 C23          3.9710     2.2600     0.9900 cd         1 BKD      -0.124100
     20 C26         -0.9150    -2.1960    -0.5410 c6         1 BKD       0.189300
     21 N10          0.0200     1.4000    -0.7440 nc         1 BKD      -0.508800
     22 N11         -1.3070     1.3870    -0.8250 na         1 BKD       0.125400
     23 N24          4.8150     1.2290     0.6960 na         1 BKD      -0.175400
     24 N4          -2.3050    -2.4670    -0.2110 n          1 BKD      -0.478800
     25 O3          -3.9080    -3.1260     1.2290 o          1 BKD      -0.609100
     26 H1          -2.3570     5.2570    -0.0510 hc         1 BKD       0.075950
     27 H2          -3.2380     4.9250     1.5040 hc         1 BKD       0.075950
     28 H3          -4.2530    -2.1890    -0.9100 h1         1 BKD       0.065700
     29 H4          -2.9810    -1.9840    -2.1080 h1         1 BKD       0.065700
     30 H5          -3.7830     0.2380    -1.6120 hc         1 BKD       0.063200
     31 H6          -3.7380    -0.0380     0.1230 hc         1 BKD       0.063200
     32 H7          -2.9740     2.4720    -1.3820 h1         1 BKD       0.067700
     33 H8          -1.4590     3.3620    -1.3820 h1         1 BKD       0.067700
     34 H9          -2.9860     2.4750     1.1490 hc         1 BKD       0.086700
     35 H10         -1.0130    -4.3640     1.2820 hc         1 BKD       0.061700
     36 H11         -1.0400    -2.9130     2.2770 hc         1 BKD       0.061700
     37 H12         -2.1590    -4.2320     2.6190 hc         1 BKD       0.061700
     38 H13         -0.3340     4.0380     0.8250 hc         1 BKD       0.075950
     39 H14         -1.2080     3.7040     2.3850 hc         1 BKD       0.075950
     40 H15          1.5620    -2.1520    -1.4720 ha         1 BKD       0.127000
     41 H16          3.8970    -2.8270    -1.2800 ha         1 BKD       0.128000
     42 H17          5.5880    -1.3170    -0.2750 ha         1 BKD       0.130000
     43 H18          1.8360     2.5770     0.6840 ha         1 BKD       0.166000
     44 H19          4.3440     3.1530     1.4650 h4         1 BKD       0.159000
     45 H20         -0.6640    -2.7090    -1.4760 h1         1 BKD       0.056200
     46 H21         -0.2530    -2.6030     0.2200 h1         1 BKD       0.056200
     47 H25          5.8010     1.2150     0.8950 hn         1 BKD       0.296700
@<TRIPOS>BOND
     1     1     8 1   
     2     1    10 1   
     3     1    26 1   
     4     1    27 1   
     5     2     3 1   
     6     2    24 1   
     7     2    28 1   
     8     2    29 1   
     9     3     4 1   
    10     3    30 1   
    11     3    31 1   
    12     4     5 2   
    13     4    22 1   
    14     5     6 1   
    15     5    20 1   
    16     6    11 1   
    17     6    21 2   
    18     7     8 1   
    19     7    22 1   
    20     7    32 1   
    21     7    33 1   
    22     8    10 1   
    23     8    34 1   
    24     9    15 1   
    25     9    35 1   
    26     9    36 1   
    27     9    37 1   
    28    10    38 1   
    29    10    39 1   
    30    11    12 ar  
    31    11    17 ar  
    32    12    13 ar  
    33    12    40 1   
    34    13    14 ar  
    35    13    41 1   
    36    14    16 ar  
    37    14    42 1   
    38    15    24 1   
    39    15    25 2   
    40    16    17 ar  
    41    16    23 1   
    42    17    18 1   
    43    18    19 2   
    44    18    43 1   
    45    19    23 1   
    46    19    44 1   
    47    20    24 1   
    48    20    45 1   
    49    20    46 1   
    50    21    22 1   
    51    23    47 1   
@<TRIPOS>SUBSTRUCTURE
     1 BKD         1 TEMP              0 ****  ****    0 ROOT
