@<TRIPOS>MOLECULE
BKD
   47    51     1     0     0
SMALL
No Charge or Current Charge


@<TRIPOS>ATOM
      1 C14         -2.7790     4.8530     0.4410 cx         1 BKD      -0.119900
      2 C5          -3.2820    -1.7320    -0.7780 c6         1 BKD       0.098000
      3 C6          -3.2350    -0.1920    -0.6050 c6         1 BKD      -0.035100
      4 C7          -1.8030     0.2540    -0.7220 cc         1 BKD      -0.134300
      5 C8          -0.7290    -0.5700    -0.6220 cd         1 BKD      -0.229300
      6 C9           0.4320     0.2310    -0.7310 cd         1 BKD       0.328500
      7 C12         -1.9920     2.7880    -1.0140 c3         1 BKD       0.115600
      8 C13         -2.5520     3.3670     0.2840 cx         1 BKD      -0.157700
      9 C1          -1.4060    -3.9590     1.8760 c3         1 BKD      -0.177100
     10 C15         -1.6750     4.1710     1.2160 cx         1 BKD      -0.119900
     11 C16          1.8300    -0.2410    -0.6520 ca         1 BKD      -0.063500
     12 C17          2.2520    -1.3830    -1.3760 ca         1 BKD      -0.134000
     13 C18          3.5960    -1.8200    -1.3270 ca         1 BKD      -0.097000
     14 C19          4.5470    -1.1170    -0.5620 ca         1 BKD      -0.124000
     15 C2          -2.5360    -3.2550     1.1190 c          1 BKD       0.608100
     16 C20          4.1210     0.0220     0.1340 ca         1 BKD      -0.053200
     17 C21          2.8200     0.4450     0.0830 ca         1 BKD      -0.075800
     18 C22          2.7380     1.6120     0.9130 cc         1 BKD      -0.220200
     19 C23          4.0070     1.8480     1.4270 cd         1 BKD      -0.174100
     20 C26         -0.8250    -2.0610    -0.3780 c6         1 BKD       0.189300
     21 N10          0.1310     1.5120    -0.8910 nc         1 BKD      -0.508800
     22 N11         -1.2530     1.5200    -0.8840 na         1 BKD       0.146800
     23 N24          4.8870     0.8510     0.9390 na         1 BKD      -0.225700
     24 N4          -2.2220    -2.4130     0.0280 n          1 BKD      -0.411800
     25 O3          -3.6980    -3.4450     1.4530 o          1 BKD      -0.609100
     26 H1          -2.4910     5.5080    -0.3790 hc         1 BKD       0.075950
     27 H2          -3.6600     5.1760     0.9910 hc         1 BKD       0.075950
     28 H3          -4.2840    -2.1010    -0.5180 h1         1 BKD       0.065700
     29 H4          -3.1200    -1.9750    -1.8380 h1         1 BKD       0.065700
     30 H5          -3.8750     0.2910    -1.3550 hc         1 BKD       0.063200
     31 H6          -3.6380     0.0780     0.3810 hc         1 BKD       0.063200
     32 H7          -2.8210     2.6230    -1.7120 h1         1 BKD       0.067700
     33 H8          -1.3260     3.5250    -1.4810 h1         1 BKD       0.067700
     34 H9          -3.2820     2.7090     0.7490 hc         1 BKD       0.086700
     35 H10         -0.7340    -4.4490     1.1620 hc         1 BKD       0.061700
     36 H11         -0.7650    -3.2020     2.3410 hc         1 BKD       0.061700
     37 H12         -1.7810    -4.6630     2.6270 hc         1 BKD       0.061700
     38 H13         -0.6480     4.3640     0.9130 hc         1 BKD       0.075950
     39 H14         -1.8140     4.0340     2.2860 hc         1 BKD       0.075950
     40 H15          1.5420    -1.9290    -1.9910 ha         1 BKD       0.109000
     41 H16          3.8990    -2.7020    -1.8880 ha         1 BKD       0.110000
     42 H17          5.5820    -1.4470    -0.5180 ha         1 BKD       0.112000
     43 H18          1.8550     2.2140     1.1170 ha         1 BKD       0.216000
     44 H19          4.3450     2.6380     2.0950 h4         1 BKD       0.209000
     45 H20         -0.5760    -2.6120    -1.2960 h1         1 BKD       0.056200
     46 H21         -0.0930    -2.3450     0.3880 h1         1 BKD       0.056200
     47 H25          5.8790     0.7590     1.1400 hn         1 BKD       0.347000
@<TRIPOS>BOND
     1     1     8 1   
     2     1    10 1   
     3     1    26 1   
     4     1    27 1   
     5     2     3 1   
     6     2    24 1   
     7     2    28 1   
     8     2    29 1   
     9     3     4 1   
    10     3    30 1   
    11     3    31 1   
    12     4     5 2   
    13     4    22 1   
    14     5     6 1   
    15     5    20 1   
    16     6    11 1   
    17     6    21 2   
    18     7     8 1   
    19     7    22 1   
    20     7    32 1   
    21     7    33 1   
    22     8    10 1   
    23     8    34 1   
    24     9    15 1   
    25     9    35 1   
    26     9    36 1   
    27     9    37 1   
    28    10    38 1   
    29    10    39 1   
    30    11    12 ar  
    31    11    17 ar  
    32    12    13 ar  
    33    12    40 1   
    34    13    14 ar  
    35    13    41 1   
    36    14    16 ar  
    37    14    42 1   
    38    15    24 1   
    39    15    25 2   
    40    16    17 ar  
    41    16    23 1   
    42    17    18 1   
    43    18    19 2   
    44    18    43 1   
    45    19    23 1   
    46    19    44 1   
    47    20    24 1   
    48    20    45 1   
    49    20    46 1   
    50    21    22 1   
    51    23    47 1   
@<TRIPOS>SUBSTRUCTURE
     1 BKD         1 TEMP              0 ****  ****    0 ROOT
