@<TRIPOS>MOLECULE
BKE
   39    42     1     0     0
SMALL
bcc


@<TRIPOS>ATOM
      1 C            6.8600     0.6460     0.7060 c3         1 BKE       0.124700
      2 N            0.5370    -0.0380    -0.0420 na         1 BKE       0.036800
      3 O            5.9420     1.1740    -0.2320 os         1 BKE      -0.314900
      4 C1           4.6470     0.8290    -0.1320 ca         1 BKE       0.150100
      5 N1           0.6470    -2.4260    -0.1710 nc         1 BKE      -0.618100
      6 C2           3.7800     1.4040    -1.0650 ca         1 BKE      -0.185500
      7 N2          -1.4590    -3.4370    -0.1170 ns         1 BKE      -0.498400
      8 C3           2.4320     1.1050    -1.0410 ca         1 BKE      -0.076000
      9 C4           1.9240     0.2410    -0.0760 ca         1 BKE      -0.044200
     10 C5           2.7780    -0.3270     0.8540 ca         1 BKE      -0.076000
     11 C6           4.1370    -0.0440     0.8270 ca         1 BKE      -0.185500
     12 C7          -0.4600     0.9070     0.0220 cc         1 BKE      -0.136300
     13 C8          -1.6860     0.2990     0.0150 cd         1 BKE      -0.033000
     14 C9          -1.4220    -1.1040    -0.0600 cd         1 BKE      -0.253600
     15 C10         -0.0390    -1.2660    -0.0940 cc         1 BKE       0.168100
     16 C11         -0.1100    -3.4710    -0.1830 cd         1 BKE       0.502800
     17 C12         -2.2390    -2.2810    -0.0340 c          1 BKE       0.745100
     18 C13         -2.9680     1.0100     0.0720 ca         1 BKE      -0.010000
     19 C14         -3.1240     2.1000     0.9310 ca         1 BKE      -0.107000
     20 C15         -4.3160     2.8100     0.9710 ca         1 BKE      -0.133000
     21 C16         -5.3790     2.4360     0.1590 ca         1 BKE      -0.126000
     22 C17         -5.2350     1.3520    -0.6980 ca         1 BKE      -0.133000
     23 C18         -4.0420     0.6450    -0.7420 ca         1 BKE      -0.107000
     24 H            6.6050     0.9270     1.7300 h1         1 BKE       0.043367
     25 HA           6.9260    -0.4430     0.6450 h1         1 BKE       0.043367
     26 HB           7.8300     1.0690     0.4580 h1         1 BKE       0.043367
     27 H2           4.1730     2.0780    -1.8160 ha         1 BKE       0.146000
     28 HN2         -1.9530    -4.3200    -0.1120 hn         1 BKE       0.327500
     29 H3           1.7740     1.5440    -1.7800 ha         1 BKE       0.147500
     30 H5           2.3910    -0.9900     1.6170 ha         1 BKE       0.147500
     31 H6           4.7740    -0.5070     1.5670 ha         1 BKE       0.146000
     32 H7          -0.2140     1.9570     0.0600 h4         1 BKE       0.175000
     33 H11          0.3290    -4.4580    -0.2470 h5         1 BKE       0.047800
     34 H14         -2.3110     2.3870     1.5850 ha         1 BKE       0.133500
     35 H15         -4.4150     3.6510     1.6460 ha         1 BKE       0.128500
     36 H16         -6.3110     2.9850     0.1940 ha         1 BKE       0.128000
     37 H17         -6.0540     1.0570    -1.3410 ha         1 BKE       0.128500
     38 H18         -3.9410    -0.1850    -1.4270 ha         1 BKE       0.133500
     39 O1          -3.4540    -2.3610     0.0520 o          1 BKE      -0.611500
@<TRIPOS>BOND
     1     1     3 1   
     2     1    24 1   
     3     1    25 1   
     4     1    26 1   
     5     2     9 1   
     6     2    12 1   
     7     2    15 1   
     8     3     4 1   
     9     4     6 ar  
    10     4    11 ar  
    11     5    15 1   
    12     5    16 2   
    13     6     8 ar  
    14     6    27 1   
    15     7    16 1   
    16     7    17 1   
    17     7    28 1   
    18     8     9 ar  
    19     8    29 1   
    20     9    10 ar  
    21    10    11 ar  
    22    10    30 1   
    23    11    31 1   
    24    12    13 2   
    25    12    32 1   
    26    13    14 1   
    27    13    18 1   
    28    14    15 2   
    29    14    17 1   
    30    16    33 1   
    31    17    39 2   
    32    18    19 ar  
    33    18    23 ar  
    34    19    20 ar  
    35    19    34 1   
    36    20    21 ar  
    37    20    35 1   
    38    21    22 ar  
    39    21    36 1   
    40    22    23 ar  
    41    22    37 1   
    42    23    38 1   
@<TRIPOS>SUBSTRUCTURE
     1 BKE         1 TEMP              0 ****  ****    0 ROOT
