@<TRIPOS>MOLECULE
BKE
   39    42     1     0     0
SMALL
No Charge or Current Charge


@<TRIPOS>ATOM
      1 C            6.9780     0.6080     0.7300 c3         1 BKE       0.147900
      2 N            0.5330    -0.0090    -0.0950 na         1 BKE       0.138200
      3 O            5.9970     1.2540    -0.1010 os         1 BKE      -0.338100
      4 C1           4.6610     0.9080    -0.0670 ca         1 BKE       0.150100
      5 N1           0.6270    -2.5090    -0.2240 nc         1 BKE      -0.618100
      6 C2           3.7830     1.5990    -0.9170 ca         1 BKE      -0.167500
      7 N2          -1.5500    -3.4700    -0.1030 ns         1 BKE      -0.431400
      8 C3           2.4110     1.2920    -0.9290 ca         1 BKE      -0.058000
      9 C4           1.9010     0.2820    -0.0870 ca         1 BKE      -0.044200
     10 C5           2.7830    -0.4070     0.7710 ca         1 BKE      -0.058000
     11 C6           4.1560    -0.0990     0.7820 ca         1 BKE      -0.167500
     12 C7          -0.4470     0.9670     0.0070 cc         1 BKE      -0.169000
     13 C8          -1.6500     0.2970    -0.0710 cd         1 BKE      -0.033000
     14 C9          -1.3690    -1.1160    -0.0940 cd         1 BKE      -0.253600
     15 C10         -0.0110    -1.2870    -0.1500 cc         1 BKE       0.117400
     16 C11         -0.1900    -3.5610    -0.2160 cd         1 BKE       0.502800
     17 C12         -2.2480    -2.3060    -0.0140 c          1 BKE       0.602600
     18 C13         -2.9550     0.9920     0.0220 ca         1 BKE      -0.010000
     19 C14         -3.0490     2.2250     0.7070 ca         1 BKE      -0.089000
     20 C15         -4.2720     2.9120     0.7890 ca         1 BKE      -0.115000
     21 C16         -5.4170     2.3880     0.1700 ca         1 BKE      -0.108000
     22 C17         -5.3320     1.1820    -0.5420 ca         1 BKE      -0.115000
     23 C18         -4.1080     0.4940    -0.6210 ca         1 BKE      -0.089000
     24 H            6.7420     0.7470     1.7920 h1         1 BKE       0.043367
     25 HA           7.0230    -0.4670     0.5160 h1         1 BKE       0.043367
     26 HB           7.9720     1.0330     0.5440 h1         1 BKE       0.043367
     27 H2           4.1690     2.3760    -1.5720 ha         1 BKE       0.128000
     28 HN2         -2.1020    -4.3130    -0.0650 hn         1 BKE       0.327500
     29 H3           1.7470     1.8360    -1.5970 ha         1 BKE       0.129500
     30 H5           2.4050    -1.1790     1.4380 ha         1 BKE       0.129500
     31 H6           4.8060    -0.6490     1.4550 ha         1 BKE       0.128000
     32 H7          -0.2160     2.0210     0.0880 h4         1 BKE       0.157000
     33 H11          0.1700    -4.5820    -0.2740 h5         1 BKE       0.047800
     34 H14         -2.1770     2.6460     1.2010 ha         1 BKE       0.115500
     35 H15         -4.3310     3.8520     1.3330 ha         1 BKE       0.110500
     36 H16         -6.3630     2.9210     0.2300 ha         1 BKE       0.110000
     37 H17         -6.2100     0.7860    -1.0460 ha         1 BKE       0.110500
     38 H18         -4.0540    -0.4020    -1.2300 ha         1 BKE       0.115500
     39 O1          -3.4560    -2.3080     0.1440 o          1 BKE      -0.536000
@<TRIPOS>BOND
     1     1     3 1   
     2     1    24 1   
     3     1    25 1   
     4     1    26 1   
     5     2     9 1   
     6     2    12 1   
     7     2    15 1   
     8     3     4 1   
     9     4     6 ar  
    10     4    11 ar  
    11     5    15 1   
    12     5    16 2   
    13     6     8 ar  
    14     6    27 1   
    15     7    16 1   
    16     7    17 1   
    17     7    28 1   
    18     8     9 ar  
    19     8    29 1   
    20     9    10 ar  
    21    10    11 ar  
    22    10    30 1   
    23    11    31 1   
    24    12    13 2   
    25    12    32 1   
    26    13    14 1   
    27    13    18 1   
    28    14    15 2   
    29    14    17 1   
    30    16    33 1   
    31    17    39 2   
    32    18    19 ar  
    33    18    23 ar  
    34    19    20 ar  
    35    19    34 1   
    36    20    21 ar  
    37    20    35 1   
    38    21    22 ar  
    39    21    36 1   
    40    22    23 ar  
    41    22    37 1   
    42    23    38 1   
@<TRIPOS>SUBSTRUCTURE
     1 BKE         1 TEMP              0 ****  ****    0 ROOT
