@<TRIPOS>MOLECULE
BKH
   49    52     1     0     0
SMALL
abcg2


@<TRIPOS>ATOM
      1 C15        -24.6190     9.4280    -3.0860 ca         1 BKH      -0.109000
      2 C14        -25.1910     8.1660    -3.2140 ca         1 BKH       0.142000
      3 C13        -11.0600     9.2490     0.0820 ca         1 BKH       0.157000
      4 C12        -11.1630     9.5720     1.4270 ca         1 BKH       0.092000
      5 C11        -12.4160     9.5270     2.0190 ca         1 BKH       0.157000
      6 C10        -12.1640     8.8880    -0.6610 ca         1 BKH      -0.130500
      7 C8         -13.4220     8.8450    -0.0500 ca         1 BKH      -0.061500
      8 C9         -13.5400     9.1710     1.3050 ca         1 BKH      -0.130500
      9 C6         -15.9340     8.4690    -0.4580 cc         1 BKH      -0.175000
     10 N1         -15.7280     7.7370    -2.5390 nc         1 BKH      -0.185800
     11 C2         -20.0810     6.5700    -1.1610 c6         1 BKH       0.138300
     12 C3         -18.7910     9.1310    -1.5430 c6         1 BKH       0.144300
     13 C4         -20.2910     8.8870    -1.7490 c6         1 BKH       0.321300
     14 CL1        -25.0490     5.4630    -3.6080 cl         1 BKH      -0.177000
     15 C19        -24.3770     7.0600    -3.4540 ca         1 BKH       0.115000
     16 CL         -26.9140     8.0050    -3.0710 cl         1 BKH      -0.174000
     17 C18        -23.0010     7.2170    -3.5570 ca         1 BKH      -0.036000
     18 C17        -22.4300     8.4780    -3.4270 ca         1 BKH      -0.103000
     19 C16        -23.2470     9.5860    -3.1980 ca         1 BKH      -0.062000
     20 S          -20.6660     8.6630    -3.5650 ss         1 BKH      -0.232000
     21 O2         -20.7450     7.8260    -0.9570 os         1 BKH      -0.416000
     22 C          -18.5850     6.7010    -0.8670 c6         1 BKH       0.135300
     23 O          -18.3490     7.0190     0.5020 oh         1 BKH      -0.722000
     24 O1         -18.3590    10.1430    -2.4340 oh         1 BKH      -0.693000
     25 C1         -18.0190     7.8210    -1.7490 c6         1 BKH       0.051300
     26 N          -16.5910     8.0150    -1.5440 na         1 BKH       0.113800
     27 C7         -14.6020     8.4600    -0.8230 cd         1 BKH       0.238500
     28 N2         -14.5300     8.0020    -2.1060 nd         1 BKH      -0.343000
     29 F2          -9.8430     9.2980    -0.4890 f          1 BKH      -0.157000
     30 F1         -10.0800     9.9170     2.1360 f          1 BKH      -0.142000
     31 F          -12.5120     9.8380     3.3250 f          1 BKH      -0.157000
     32 H15        -25.2570    10.2830    -2.9050 ha         1 BKH       0.135000
     33 H10        -12.0430     8.6450    -1.7070 ha         1 BKH       0.148500
     34 H9         -14.4920     9.1450     1.8160 ha         1 BKH       0.148500
     35 H6         -16.4400     8.7510     0.4460 h4         1 BKH       0.179000
     36 H2         -20.2000     6.2710    -2.2070 h1         1 BKH       0.080700
     37 H3         -18.6760     9.4580    -0.5070 h1         1 BKH       0.066700
     38 HO3        -22.5200     4.7150    -0.1640 ho         1 BKH       0.511000
     39 H4         -20.8500     9.7640    -1.4300 h2         1 BKH       0.110700
     40 H18        -22.3790     6.3490    -3.7220 ha         1 BKH       0.144000
     41 H16        -22.8110    10.5720    -3.1050 ha         1 BKH       0.131000
     42 HXT        -18.0900     5.7640    -1.1320 h1         1 BKH       0.063700
     43 HO         -18.0580     6.2240     0.9640 ho         1 BKH       0.515000
     44 HO1        -17.6050    10.6050    -2.0460 ho         1 BKH       0.517000
     45 H1         -18.1140     7.5180    -2.7910 h1         1 BKH       0.121700
     46 C5         -20.7550     5.5470    -0.2760 c3         1 BKH       0.169600
     47 H51        -20.1430     4.6380    -0.2730 h1         1 BKH       0.036700
     48 O3         -22.0560     5.2780    -0.7950 oh         1 BKH      -0.713000
     49 H52        -20.8120     5.9310     0.7460 h1         1 BKH       0.036700
@<TRIPOS>BOND
     1     1     2 ar  
     2     1    19 ar  
     3     1    32 1   
     4     2    15 ar  
     5     2    16 1   
     6     3     4 ar  
     7     3     6 ar  
     8     3    29 1   
     9     4     5 ar  
    10     4    30 1   
    11     5     8 ar  
    12     5    31 1   
    13     6     7 ar  
    14     6    33 1   
    15     7     8 ar  
    16     7    27 1   
    17     8    34 1   
    18     9    26 1   
    19     9    27 2   
    20     9    35 1   
    21    10    26 1   
    22    10    28 2   
    23    11    21 1   
    24    11    22 1   
    25    11    36 1   
    26    11    46 1   
    27    12    13 1   
    28    12    24 1   
    29    12    25 1   
    30    12    37 1   
    31    13    20 1   
    32    13    21 1   
    33    13    39 1   
    34    14    15 1   
    35    15    17 ar  
    36    17    18 ar  
    37    17    40 1   
    38    18    19 ar  
    39    18    20 1   
    40    19    41 1   
    41    22    23 1   
    42    22    25 1   
    43    22    42 1   
    44    23    43 1   
    45    24    44 1   
    46    25    26 1   
    47    25    45 1   
    48    27    28 1   
    49    38    48 1   
    50    46    47 1   
    51    46    48 1   
    52    46    49 1   
@<TRIPOS>SUBSTRUCTURE
     1 BKH         1 TEMP              0 ****  ****    0 ROOT
