@<TRIPOS>MOLECULE
BKH
   49    52     1     0     0
SMALL
No Charge or Current Charge


@<TRIPOS>ATOM
      1 C15        -24.7180     8.7950    -2.4540 ca         1 BKH      -0.109000
      2 C14        -25.2780     7.8220    -3.2990 ca         1 BKH       0.142000
      3 C13        -10.9120     8.9770     0.1810 ca         1 BKH       0.157000
      4 C12        -11.0770     9.6340     1.4110 ca         1 BKH       0.092000
      5 C11        -12.3720     9.8800     1.8960 ca         1 BKH       0.157000
      6 C10        -12.0330     8.5680    -0.5610 ca         1 BKH      -0.130500
      7 C8         -13.3420     8.8110    -0.0830 ca         1 BKH      -0.061500
      8 C9         -13.4970     9.4730     1.1570 ca         1 BKH      -0.130500
      9 C6         -15.8400     8.5450    -0.5330 cc         1 BKH      -0.175000
     10 N1         -15.6430     7.4750    -2.5120 nc         1 BKH      -0.185800
     11 C2         -20.1440     6.7340    -1.0650 c6         1 BKH       0.138300
     12 C3         -18.7020     9.2510    -1.5830 c6         1 BKH       0.144300
     13 C4         -20.2500     9.0740    -1.7740 c6         1 BKH       0.321300
     14 Cl1        -25.1280     5.9060    -5.2950 cl         1 BKH      -0.177000
     15 C19        -24.4580     7.1300    -4.2140 ca         1 BKH       0.115000
     16 Cl         -27.0090     7.4940    -3.1980 cl         1 BKH      -0.174000
     17 C18        -23.0830     7.4140    -4.2720 ca         1 BKH      -0.036000
     18 C17        -22.5170     8.3800    -3.4190 ca         1 BKH      -0.103000
     19 C16        -23.3410     9.0760    -2.5120 ca         1 BKH      -0.062000
     20 S          -20.7540     8.6970    -3.5300 ss         1 BKH      -0.232000
     21 O2         -20.7510     8.0430    -0.8850 os         1 BKH      -0.416000
     22 C          -18.6080     6.8100    -0.7760 c6         1 BKH       0.135300
     23 O          -18.3470     7.1700     0.6010 oh         1 BKH      -0.722000
     24 O1         -18.1680    10.2360    -2.5000 oh         1 BKH      -0.693000
     25 C1         -17.9870     7.8700    -1.7420 c6         1 BKH       0.051300
     26 N          -16.5140     7.9650    -1.5840 na         1 BKH       0.113800
     27 C7         -14.5240     8.3820    -0.8620 cd         1 BKH       0.238500
     28 N2         -14.4390     7.7290    -2.0740 nd         1 BKH      -0.343000
     29 F2          -9.6720     8.7320    -0.3000 f          1 BKH      -0.157000
     30 F1          -9.9940    10.0280     2.1260 f          1 BKH      -0.142000
     31 F          -12.5480    10.5120     3.0790 f          1 BKH      -0.157000
     32 H15        -25.3520     9.3310    -1.7530 ha         1 BKH       0.135000
     33 H10        -11.8760     8.0620    -1.5100 ha         1 BKH       0.148500
     34 H9         -14.4850     9.6780     1.5590 ha         1 BKH       0.148500
     35 H6         -16.3270     8.9900     0.3230 h4         1 BKH       0.179000
     36 H2         -20.2950     6.4020    -2.1020 h1         1 BKH       0.080700
     37 H3         -18.5510     9.5980    -0.5490 h1         1 BKH       0.066700
     38 HO3        -22.6970     5.0030     0.2140 ho         1 BKH       0.511000
     39 H4         -20.7310    10.0300    -1.5210 h2         1 BKH       0.110700
     40 H18        -22.4540     6.8770    -4.9780 ha         1 BKH       0.144000
     41 H16        -22.9300     9.8370    -1.8550 ha         1 BKH       0.131000
     42 HXT        -18.1580     5.8310    -1.0050 h1         1 BKH       0.063700
     43 HO         -18.3090     6.3380     1.1280 ho         1 BKH       0.515000
     44 HO1        -17.2500    10.4490    -2.2110 ho         1 BKH       0.517000
     45 H1         -18.1700     7.5230    -2.7690 h1         1 BKH       0.121700
     46 C5         -20.8940     5.7070    -0.1540 c3         1 BKH       0.169600
     47 H51        -20.4060     4.7300    -0.2670 h1         1 BKH       0.036700
     48 O3         -22.2970     5.5950    -0.4650 oh         1 BKH      -0.713000
     49 H52        -20.7680     6.0160     0.8930 h1         1 BKH       0.036700
@<TRIPOS>BOND
     1     1     2 ar  
     2     1    19 ar  
     3     1    32 1   
     4     2    15 ar  
     5     2    16 1   
     6     3     4 ar  
     7     3     6 ar  
     8     3    29 1   
     9     4     5 ar  
    10     4    30 1   
    11     5     8 ar  
    12     5    31 1   
    13     6     7 ar  
    14     6    33 1   
    15     7     8 ar  
    16     7    27 1   
    17     8    34 1   
    18     9    26 1   
    19     9    27 2   
    20     9    35 1   
    21    10    26 1   
    22    10    28 2   
    23    11    21 1   
    24    11    22 1   
    25    11    36 1   
    26    11    46 1   
    27    12    13 1   
    28    12    24 1   
    29    12    25 1   
    30    12    37 1   
    31    13    20 1   
    32    13    21 1   
    33    13    39 1   
    34    14    15 1   
    35    15    17 ar  
    36    17    18 ar  
    37    17    40 1   
    38    18    19 ar  
    39    18    20 1   
    40    19    41 1   
    41    22    23 1   
    42    22    25 1   
    43    22    42 1   
    44    23    43 1   
    45    24    44 1   
    46    25    26 1   
    47    25    45 1   
    48    27    28 1   
    49    38    48 1   
    50    46    47 1   
    51    46    48 1   
    52    46    49 1   
@<TRIPOS>SUBSTRUCTURE
     1 BKH         1 TEMP              0 ****  ****    0 ROOT
