@<TRIPOS>MOLECULE
BKI
   35    38     1     0     0
SMALL
No Charge or Current Charge


@<TRIPOS>ATOM
      1 C            6.2530    -2.5820    -0.1010 ca         1 BKI      -0.105000
      2 N            2.6880    -0.3210     0.0320 na         1 BKI       0.133200
      3 O           -0.2910     3.1930    -0.1210 o          1 BKI      -0.536000
      4 Br          -5.6100    -0.8670    -0.1070 br         1 BKI      -0.105100
      5 C1           5.2230    -2.9390     0.7850 ca         1 BKI      -0.101500
      6 N1           3.6270     1.9980     0.1350 nc         1 BKI      -0.619100
      7 C2           4.0390    -2.1820     0.8290 ca         1 BKI      -0.099000
      8 N2           1.9020     3.6400     0.0620 ns         1 BKI      -0.429400
      9 C3           3.8760    -1.0590    -0.0100 ca         1 BKI      -0.002200
     10 C4           4.9140    -0.7120    -0.9010 ca         1 BKI      -0.099000
     11 C5           6.0980    -1.4700    -0.9450 ca         1 BKI      -0.101500
     12 C6           1.4330    -0.9070    -0.0330 cc         1 BKI      -0.163000
     13 C7           0.5310     0.1310     0.0700 cd         1 BKI      -0.039000
     14 C8           1.2750     1.3650     0.0720 cd         1 BKI      -0.251600
     15 C9           2.6110     1.0650     0.0900 cc         1 BKI       0.122400
     16 C10          3.2160     3.2660     0.1380 cd         1 BKI       0.505800
     17 C11          0.8500     2.7820     0.0040 c          1 BKI       0.602600
     18 C12         -0.9340    -0.0780     0.0180 ca         1 BKI       0.005000
     19 C13         -1.4600    -1.2050    -0.6550 ca         1 BKI      -0.091500
     20 C14         -2.8470    -1.4350    -0.7000 ca         1 BKI      -0.087500
     21 C15         -3.7240    -0.5520    -0.0530 ca         1 BKI      -0.016900
     22 C16         -3.2170     0.5510     0.6480 ca         1 BKI      -0.087500
     23 C17         -1.8300     0.7810     0.6880 ca         1 BKI      -0.091500
     24 H            7.1690    -3.1680    -0.1360 ha         1 BKI       0.118000
     25 H1           5.3420    -3.8010     1.4370 ha         1 BKI       0.119500
     26 H2           3.2490    -2.4660     1.5220 ha         1 BKI       0.129500
     27 HN2          1.6680     4.6210     0.0320 hn         1 BKI       0.329500
     28 H4           4.8020     0.1410    -1.5660 ha         1 BKI       0.129500
     29 H5           6.8930    -1.1950    -1.6350 ha         1 BKI       0.119500
     30 H6           1.2910    -1.9770    -0.1100 h4         1 BKI       0.158000
     31 H10          3.9020     4.1040     0.1770 h5         1 BKI       0.050800
     32 H13         -0.7980    -1.8960    -1.1700 ha         1 BKI       0.122500
     33 H14         -3.2370    -2.2970    -1.2350 ha         1 BKI       0.128500
     34 H16         -3.8940     1.2220     1.1720 ha         1 BKI       0.128500
     35 H17         -1.4570     1.6030     1.2890 ha         1 BKI       0.122500
@<TRIPOS>BOND
     1     1     5 ar  
     2     1    11 ar  
     3     1    24 1   
     4     2     9 1   
     5     2    12 1   
     6     2    15 1   
     7     3    17 2   
     8     4    21 1   
     9     5     7 ar  
    10     5    25 1   
    11     6    15 1   
    12     6    16 2   
    13     7     9 ar  
    14     7    26 1   
    15     8    16 1   
    16     8    17 1   
    17     8    27 1   
    18     9    10 ar  
    19    10    11 ar  
    20    10    28 1   
    21    11    29 1   
    22    12    13 2   
    23    12    30 1   
    24    13    14 1   
    25    13    18 1   
    26    14    15 2   
    27    14    17 1   
    28    16    31 1   
    29    18    19 ar  
    30    18    23 ar  
    31    19    20 ar  
    32    19    32 1   
    33    20    21 ar  
    34    20    33 1   
    35    21    22 ar  
    36    22    23 ar  
    37    22    34 1   
    38    23    35 1   
@<TRIPOS>SUBSTRUCTURE
     1 BKI         1 TEMP              0 ****  ****    0 ROOT
