@<TRIPOS>MOLECULE
BKI
   35    38     1     0     0
SMALL
bcc


@<TRIPOS>ATOM
      1 C            6.2230    -2.5330    -0.0040 ca         1 BKI      -0.123000
      2 N            2.6830    -0.2940    -0.0580 na         1 BKI       0.031800
      3 O           -0.2640     3.2630    -0.0490 o          1 BKI      -0.611500
      4 BR          -5.5540    -0.9770     0.0480 br         1 BKI      -0.105100
      5 C1           5.1810    -2.8500     0.8570 ca         1 BKI      -0.119500
      6 N1           3.6120     1.9140     0.0400 nc         1 BKI      -0.619100
      7 C2           4.0140    -2.0990     0.8480 ca         1 BKI      -0.117000
      8 N2           1.9820     3.5880     0.0450 ns         1 BKI      -0.496400
      9 C3           3.8860    -1.0390    -0.0410 ca         1 BKI      -0.002200
     10 C4           4.9190    -0.7220    -0.9140 ca         1 BKI      -0.117000
     11 C5           6.0880    -1.4680    -0.8850 ca         1 BKI      -0.119500
     12 C6           1.4210    -0.8370    -0.0720 cc         1 BKI      -0.130300
     13 C7           0.4800     0.1560    -0.0350 cd         1 BKI      -0.039000
     14 C8           1.2140     1.3840     0.0090 cd         1 BKI      -0.251600
     15 C9           2.5680     1.0600    -0.0050 cc         1 BKI       0.173100
     16 C10          3.2620     3.1550     0.0670 cd         1 BKI       0.505800
     17 C11          0.8520     2.7710    -0.0020 c          1 BKI       0.745100
     18 C12         -0.9660    -0.0760    -0.0330 ca         1 BKI       0.005000
     19 C13         -1.5100    -1.1030    -0.8070 ca         1 BKI      -0.109500
     20 C14         -2.8680    -1.3810    -0.7860 ca         1 BKI      -0.105500
     21 C15         -3.7010    -0.6150     0.0150 ca         1 BKI      -0.016900
     22 C16         -3.1900     0.4140     0.7920 ca         1 BKI      -0.105500
     23 C17         -1.8300     0.6760     0.7640 ca         1 BKI      -0.109500
     24 H            7.1350    -3.1140     0.0110 ha         1 BKI       0.136000
     25 H1           5.2760    -3.6770     1.5470 ha         1 BKI       0.137500
     26 H2           3.2120    -2.3330     1.5360 ha         1 BKI       0.147500
     27 HN2          1.8230     4.5870     0.0510 hn         1 BKI       0.329500
     28 H4           4.8110     0.0930    -1.6160 ha         1 BKI       0.147500
     29 H5           6.8940    -1.2200    -1.5640 ha         1 BKI       0.137500
     30 H6           1.2880    -1.9070    -0.1080 h4         1 BKI       0.176000
     31 H10          4.0160     3.9300     0.1090 h5         1 BKI       0.050800
     32 H13         -0.8680    -1.6900    -1.4510 ha         1 BKI       0.140500
     33 H14         -3.2600    -2.1830    -1.3970 ha         1 BKI       0.146500
     34 H16         -3.8360     1.0090     1.4240 ha         1 BKI       0.146500
     35 H17         -1.4410     1.4710     1.3850 ha         1 BKI       0.140500
@<TRIPOS>BOND
     1     1     5 ar  
     2     1    11 ar  
     3     1    24 1   
     4     2     9 1   
     5     2    12 1   
     6     2    15 1   
     7     3    17 2   
     8     4    21 1   
     9     5     7 ar  
    10     5    25 1   
    11     6    15 1   
    12     6    16 2   
    13     7     9 ar  
    14     7    26 1   
    15     8    16 1   
    16     8    17 1   
    17     8    27 1   
    18     9    10 ar  
    19    10    11 ar  
    20    10    28 1   
    21    11    29 1   
    22    12    13 2   
    23    12    30 1   
    24    13    14 1   
    25    13    18 1   
    26    14    15 2   
    27    14    17 1   
    28    16    31 1   
    29    18    19 ar  
    30    18    23 ar  
    31    19    20 ar  
    32    19    32 1   
    33    20    21 ar  
    34    20    33 1   
    35    21    22 ar  
    36    22    23 ar  
    37    22    34 1   
    38    23    35 1   
@<TRIPOS>SUBSTRUCTURE
     1 BKI         1 TEMP              0 ****  ****    0 ROOT
