@<TRIPOS>MOLECULE
BKJ
   62    67     1     0     0
SMALL
No Charge or Current Charge


@<TRIPOS>ATOM
      1 C14          2.3770     5.0220    -0.6630 c6         1 BKJ       0.155100
      2 C5           4.9840    -1.4170    -0.5210 c6         1 BKJ       0.107000
      3 C6           4.5090     0.0540    -0.6560 c6         1 BKJ      -0.033100
      4 C7           3.1630     0.1810     0.0080 cc         1 BKJ      -0.145300
      5 C8           2.3660    -0.8710     0.3260 cd         1 BKJ      -0.206300
      6 C9           1.1930    -0.3500     0.9070 cd         1 BKJ       0.317500
      7 C12          2.9000     2.7070     0.2460 c6         1 BKJ       0.103300
      8 C13          1.8950     3.5560    -0.5780 c6         1 BKJ      -0.126900
      9 C16          3.5900     4.8480     1.4280 c6         1 BKJ       0.155100
     10 C17          3.1730     3.3730     1.6210 c6         1 BKJ      -0.126900
     11 C18          0.0490    -1.1350     1.4030 ca         1 BKJ      -0.075500
     12 C19          0.2840    -2.1150     2.3910 ca         1 BKJ      -0.109000
     13 C2           3.9160    -3.2510    -1.9790 c          1 BKJ       0.608100
     14 C20         -0.7740    -2.8670     2.9250 ca         1 BKJ      -0.093000
     15 C21         -2.0860    -2.6470     2.4810 ca         1 BKJ      -0.103000
     16 C22         -2.3370    -1.6760     1.4960 ca         1 BKJ      -0.005000
     17 C23         -1.2800    -0.9170     0.9510 ca         1 BKJ      -0.084000
     18 C24         -1.6000     0.0240    -0.0550 ca         1 BKJ       0.385900
     19 C26         -3.8680    -0.4800     0.0360 ca         1 BKJ       0.448500
     20 C27         -3.6420    -1.4460     1.0340 ca         1 BKJ      -0.155000
     21 C28         -5.2220    -0.2270    -0.4590 cc         1 BKJ      -0.274500
     22 C29         -6.4400    -0.8150    -0.0960 cc         1 BKJ       0.259900
     23 C32         -5.5040     0.6950    -1.4270 cd         1 BKJ      -0.118000
     24 C34          2.7150    -2.3190     0.0550 c6         1 BKJ       0.176300
     25 N10          1.2160     0.9710     0.9710 nc         1 BKJ      -0.512800
     26 N11          2.4390     1.3040     0.4040 na         1 BKJ       0.148800
     27 N25         -2.8590     0.2410    -0.5030 nb         1 BKJ      -0.689000
     28 N30         -7.4750    -0.3380    -0.7570 nd         1 BKJ      -0.531800
     29 N31         -6.8910     0.6090    -1.5920 na         1 BKJ       0.128800
     30 N4           3.8910    -2.3820    -0.8640 n          1 BKJ      -0.415800
     31 O15          2.5820     5.5470     0.6660 os         1 BKJ      -0.441000
     32 O3           2.9900    -4.0210    -2.1950 o          1 BKJ      -0.595100
     33 H1           3.3190     5.0850    -1.2290 h1         1 BKJ       0.047200
     34 H2           1.6260     5.6370    -1.1800 h1         1 BKJ       0.047200
     35 H3           5.8830    -1.5690    -1.1310 h1         1 BKJ       0.055700
     36 H4           5.2810    -1.5950     0.5220 h1         1 BKJ       0.055700
     37 H5           5.2510     0.7260    -0.2050 hc         1 BKJ       0.059200
     38 H6           4.4370     0.3220    -1.7190 hc         1 BKJ       0.059200
     39 H7           3.8480     2.6900    -0.3100 h1         1 BKJ       0.054700
     40 H8           0.9000     3.5300    -0.1140 hc         1 BKJ       0.070950
     41 H9           1.7850     3.1390    -1.5880 hc         1 BKJ       0.070950
     42 H10          6.0270    -3.4540    -2.3560 hc         1 BKJ       0.059367
     43 H11          5.0010    -3.9120    -3.7700 hc         1 BKJ       0.059367
     44 H12          5.2920    -2.1980    -3.2640 hc         1 BKJ       0.059367
     45 H13          3.7040     5.3380     2.4060 h1         1 BKJ       0.047200
     46 H14          4.5530     4.9090     0.9000 h1         1 BKJ       0.047200
     47 H15          2.2740     3.3280     2.2500 hc         1 BKJ       0.070950
     48 H16          3.9620     2.8270     2.1550 hc         1 BKJ       0.070950
     49 H17          1.2940    -2.2830     2.7580 ha         1 BKJ       0.115000
     50 H18         -0.5780    -3.6170     3.6880 ha         1 BKJ       0.115000
     51 H19         -2.9030    -3.2310     2.8990 ha         1 BKJ       0.118000
     52 H20         -0.8320     0.6200    -0.5440 h4         1 BKJ       0.032100
     53 H21         -4.4710    -2.0150     1.4410 ha         1 BKJ       0.121000
     54 H22         -6.6090    -1.5890     0.6420 h4         1 BKJ       0.036100
     55 H23         -4.8730     1.3760    -1.9890 h4         1 BKJ       0.167000
     56 H24         -8.2210     0.7250    -3.2220 h1         1 BKJ       0.056367
     57 H25         -8.4520     1.9750    -1.9610 h1         1 BKJ       0.056367
     58 H26         -7.0680     2.0850    -3.0890 h1         1 BKJ       0.056367
     59 H27          2.9640    -2.8330     0.9940 h1         1 BKJ       0.071200
     60 H28          1.8450    -2.8300    -0.3820 h1         1 BKJ       0.071200
     61 C33         -7.7080     1.3980    -2.5240 c3         1 BKJ       0.072900
     62 C1           5.1190    -3.2250    -2.9250 c3         1 BKJ      -0.177100
@<TRIPOS>BOND
     1     1     8 1   
     2     1    31 1   
     3     1    33 1   
     4     1    34 1   
     5     2     3 1   
     6     2    30 1   
     7     2    35 1   
     8     2    36 1   
     9     3     4 1   
    10     3    37 1   
    11     3    38 1   
    12     4     5 2   
    13     4    26 1   
    14     5     6 1   
    15     5    24 1   
    16     6    11 1   
    17     6    25 2   
    18     7     8 1   
    19     7    10 1   
    20     7    26 1   
    21     7    39 1   
    22     8    40 1   
    23     8    41 1   
    24     9    10 1   
    25     9    31 1   
    26     9    45 1   
    27     9    46 1   
    28    10    47 1   
    29    10    48 1   
    30    11    12 ar  
    31    11    17 ar  
    32    12    14 ar  
    33    12    49 1   
    34    13    30 1   
    35    13    32 2   
    36    13    62 1   
    37    14    15 ar  
    38    14    50 1   
    39    15    16 ar  
    40    15    51 1   
    41    16    17 ar  
    42    16    20 ar  
    43    17    18 ar  
    44    18    27 ar  
    45    18    52 1   
    46    19    20 ar  
    47    19    21 1   
    48    19    27 ar  
    49    20    53 1   
    50    21    22 1   
    51    21    23 2   
    52    22    28 2   
    53    22    54 1   
    54    23    29 1   
    55    23    55 1   
    56    24    30 1   
    57    24    59 1   
    58    24    60 1   
    59    25    26 1   
    60    28    29 1   
    61    29    61 1   
    62    42    62 1   
    63    43    62 1   
    64    44    62 1   
    65    56    61 1   
    66    57    61 1   
    67    58    61 1   
@<TRIPOS>SUBSTRUCTURE
     1 BKJ         1 TEMP              0 ****  ****    0 ROOT
