@<TRIPOS>MOLECULE
BKJ
   62    67     1     0     0
SMALL
bcc


@<TRIPOS>ATOM
      1 C14          2.2020     4.5430    -1.2380 c6         1 BKJ       0.131900
      2 C5           5.2130    -1.3540    -0.1070 c6         1 BKJ       0.107000
      3 C6           4.6480     0.0460    -0.3590 c6         1 BKJ      -0.033100
      4 C7           3.2310     0.0320     0.0910 cc         1 BKJ      -0.094600
      5 C8           2.5020    -1.0980     0.3730 cd         1 BKJ      -0.271600
      6 C9           1.2270    -0.6180     0.7410 cd         1 BKJ       0.382800
      7 C12          2.7020     2.4890     0.0790 c6         1 BKJ       0.074000
      8 C13          1.9080     3.0560    -1.0940 c6         1 BKJ      -0.126900
      9 C16          2.7130     4.7860     1.0300 c6         1 BKJ       0.131900
     10 C17          2.4440     3.3190     1.3310 c6         1 BKJ      -0.126900
     11 C18          0.0600    -1.4010     1.1610 ca         1 BKJ      -0.075500
     12 C19          0.2620    -2.5270     1.9270 ca         1 BKJ      -0.127000
     13 C2           4.4410    -3.0870    -1.7120 c          1 BKJ       0.675100
     14 C20         -0.8100    -3.3170     2.3810 ca         1 BKJ      -0.111000
     15 C21         -2.0990    -2.9820     2.0780 ca         1 BKJ      -0.121000
     16 C22         -2.3570    -1.8400     1.2860 ca         1 BKJ      -0.005000
     17 C23         -1.2790    -1.0500     0.8140 ca         1 BKJ      -0.149300
     18 C24         -1.6240     0.0420    -0.0230 ca         1 BKJ       0.451200
     19 C26         -3.8790    -0.3620     0.1450 ca         1 BKJ       0.513800
     20 C27         -3.6690    -1.4620     0.9390 ca         1 BKJ      -0.238300
     21 C28         -5.2110     0.0860    -0.2350 cc         1 BKJ      -0.339800
     22 C29         -6.4710    -0.4370     0.1190 cc         1 BKJ       0.325200
     23 C32         -5.5210     1.1600    -1.0490 cd         1 BKJ      -0.085300
     24 C34          3.0710    -2.4730     0.2150 c6         1 BKJ       0.176300
     25 N10          1.2020     0.7070     0.6820 nc         1 BKJ      -0.512800
     26 N11          2.4120     1.0830     0.2900 na         1 BKJ       0.127400
     27 N25         -2.8450     0.3690    -0.3420 nb         1 BKJ      -0.689000
     28 N30         -7.4510     0.2540    -0.4270 nd         1 BKJ      -0.531800
     29 N31         -6.8570     1.2150    -1.1310 na         1 BKJ       0.107400
     30 N4           4.2950    -2.3810    -0.5660 n          1 BKJ      -0.482800
     31 O15          1.9350     5.2530    -0.0500 os         1 BKJ      -0.394600
     32 O3           3.6070    -3.9040    -2.0820 o          1 BKJ      -0.595100
     33 H1           3.2520     4.6800    -1.5380 h1         1 BKJ       0.047200
     34 H2           1.5800     4.9770    -2.0220 h1         1 BKJ       0.047200
     35 H3           6.1860    -1.4630    -0.5750 h1         1 BKJ       0.055700
     36 H4           5.3640    -1.4930     0.9660 h1         1 BKJ       0.055700
     37 H5           5.2420     0.7800     0.1900 hc         1 BKJ       0.059200
     38 H6           4.7210     0.3030    -1.4200 hc         1 BKJ       0.059200
     39 H7           3.7670     2.5440    -0.1610 h1         1 BKJ       0.054700
     40 H8           0.8400     2.9000    -0.9230 hc         1 BKJ       0.070950
     41 H9           2.1750     2.5450    -2.0210 hc         1 BKJ       0.070950
     42 H10          6.5890    -3.1320    -1.9660 hc         1 BKJ       0.059367
     43 H11          5.6490    -3.4340    -3.4270 hc         1 BKJ       0.059367
     44 H12          5.8050    -1.7920    -2.7960 hc         1 BKJ       0.059367
     45 H13          2.4640     5.4020     1.8950 h1         1 BKJ       0.047200
     46 H14          3.7830     4.9290     0.8200 h1         1 BKJ       0.047200
     47 H15          1.4090     3.1880     1.6540 hc         1 BKJ       0.070950
     48 H16          3.0900     2.9910     2.1490 hc         1 BKJ       0.070950
     49 H17          1.2660    -2.8070     2.2190 ha         1 BKJ       0.133000
     50 H18         -0.6010    -4.1900     2.9850 ha         1 BKJ       0.133000
     51 H19         -2.9270    -3.5820     2.4330 ha         1 BKJ       0.136000
     52 H20         -0.8400     0.6630    -0.4360 h4         1 BKJ       0.032100
     53 H21         -4.5000    -2.0540     1.3010 ha         1 BKJ       0.139000
     54 H22         -6.6950    -1.2870     0.7480 h4         1 BKJ       0.036100
     55 H23         -4.8870     1.8650    -1.5590 h4         1 BKJ       0.185000
     56 H24         -8.3120     1.6640    -2.5580 h1         1 BKJ       0.056367
     57 H25         -8.2490     2.7730    -1.1740 h1         1 BKJ       0.056367
     58 H26         -6.9890     2.8310    -2.4150 h1         1 BKJ       0.056367
     59 H27          3.3040    -2.9250     1.1860 h1         1 BKJ       0.071200
     60 H28          2.3720    -3.1380    -0.2880 h1         1 BKJ       0.071200
     61 C33         -7.6520     2.1750    -1.8590 c3         1 BKJ       0.043600
     62 C1           5.6940    -2.8410    -2.5180 c3         1 BKJ      -0.177100
@<TRIPOS>BOND
     1     1     8 1   
     2     1    31 1   
     3     1    33 1   
     4     1    34 1   
     5     2     3 1   
     6     2    30 1   
     7     2    35 1   
     8     2    36 1   
     9     3     4 1   
    10     3    37 1   
    11     3    38 1   
    12     4     5 2   
    13     4    26 1   
    14     5     6 1   
    15     5    24 1   
    16     6    11 1   
    17     6    25 2   
    18     7     8 1   
    19     7    10 1   
    20     7    26 1   
    21     7    39 1   
    22     8    40 1   
    23     8    41 1   
    24     9    10 1   
    25     9    31 1   
    26     9    45 1   
    27     9    46 1   
    28    10    47 1   
    29    10    48 1   
    30    11    12 ar  
    31    11    17 ar  
    32    12    14 ar  
    33    12    49 1   
    34    13    30 1   
    35    13    32 2   
    36    13    62 1   
    37    14    15 ar  
    38    14    50 1   
    39    15    16 ar  
    40    15    51 1   
    41    16    17 ar  
    42    16    20 ar  
    43    17    18 ar  
    44    18    27 ar  
    45    18    52 1   
    46    19    20 ar  
    47    19    21 1   
    48    19    27 ar  
    49    20    53 1   
    50    21    22 1   
    51    21    23 2   
    52    22    28 2   
    53    22    54 1   
    54    23    29 1   
    55    23    55 1   
    56    24    30 1   
    57    24    59 1   
    58    24    60 1   
    59    25    26 1   
    60    28    29 1   
    61    29    61 1   
    62    42    62 1   
    63    43    62 1   
    64    44    62 1   
    65    56    61 1   
    66    57    61 1   
    67    58    61 1   
@<TRIPOS>SUBSTRUCTURE
     1 BKJ         1 TEMP              0 ****  ****    0 ROOT
