@<TRIPOS>MOLECULE
BKK
   49    52     1     0     0
SMALL
abcg2


@<TRIPOS>ATOM
      1 C1          -0.0390     1.2810     0.5580 c6         1 BKK       0.065300
      2 C2          -1.7440     2.5270    -0.7220 c6         1 BKK       0.150300
      3 C3          -0.8070    -0.0110     0.2840 c6         1 BKK       0.150300
      4 C4          -2.2700     0.3730     0.0130 c6         1 BKK       0.246300
      5 C5          -2.0840     3.5120    -1.8170 c3         1 BKK       0.172600
      6 C6           2.2220     0.3100     0.0110 cc         1 BKK      -0.176000
      7 C10          5.8310     0.1310     1.1440 ca         1 BKK      -0.135000
      8 C11          6.1340    -1.4110    -1.1280 ca         1 BKK       0.160000
      9 C12          7.2330    -1.1640    -0.3250 ca         1 BKK       0.087000
     10 C13          7.0610    -0.3900     0.8080 ca         1 BKK       0.160000
     11 C14         -7.4550    -0.1690     0.8310 ca         1 BKK      -0.089000
     12 C15         -6.7220     0.7750     0.1250 ca         1 BKK      -0.104000
     13 C7           3.4250     0.4230     0.6680 cd         1 BKK       0.237500
     14 C8           4.7310    -0.1260     0.3260 ca         1 BKK      -0.058500
     15 C9           4.8910    -0.9050    -0.8190 ca         1 BKK      -0.135000
     16 C19         -6.8550    -1.3770     1.1450 ca         1 BKK       0.115000
     17 C18         -5.5450    -1.6520     0.7840 ca         1 BKK      -0.073000
     18 C17         -4.8280    -0.6990     0.0680 ca         1 BKK      -0.109000
     19 C16         -5.4200     0.5160    -0.2740 ca         1 BKK      -0.083000
     20 S           -3.1870    -1.1180    -0.4440 ss         1 BKK      -0.148000
     21 O2          -2.3570     1.2900    -1.0360 os         1 BKK      -0.407000
     22 O3          -3.4740     3.7350    -1.7900 oh         1 BKK      -0.715000
     23 C           -0.2420     2.3250    -0.5480 c6         1 BKK       0.133300
     24 O            0.3320     1.8900    -1.7540 oh         1 BKK      -0.705000
     25 O1          -0.6720    -0.8210     1.4130 oh         1 BKK      -0.704000
     26 N            1.3680     1.0110     0.7720 na         1 BKK       0.135800
     27 N2           3.2200     1.1820     1.7690 nd         1 BKK      -0.346000
     28 N1           1.9860     1.5290     1.8240 nc         1 BKK      -0.191800
     29 F1           8.4280    -1.6580    -0.6380 f          1 BKK      -0.143000
     30 F            6.3030    -2.1550    -2.2210 f          1 BKK      -0.155500
     31 H1          -0.4000     1.7040     1.5000 h1         1 BKK       0.109700
     32 H2          -2.1410     2.9140     0.2310 h1         1 BKK       0.058700
     33 H3          -0.4090    -0.4940    -0.6210 h1         1 BKK       0.069700
     34 H4          -2.7140     0.7730     0.9370 h2         1 BKK       0.073700
     35 H5          -1.5200     4.4350    -1.6270 h1         1 BKK       0.037200
     36 H6          -1.7500     3.1200    -2.7840 h1         1 BKK       0.037200
     37 H7           1.9290    -0.2010    -0.8890 h4         1 BKK       0.178000
     38 H8           5.7350     0.7340     2.0370 ha         1 BKK       0.148500
     39 H9          -8.4750     0.0350     1.1290 ha         1 BKK       0.132000
     40 H10         -7.1810     1.7210    -0.1310 ha         1 BKK       0.123000
     41 H11          4.0610    -1.1240    -1.4780 ha         1 BKK       0.148500
     42 H12         -5.0850    -2.5910     1.0640 ha         1 BKK       0.139000
     43 H13         -4.8730     1.2550    -0.8450 ha         1 BKK       0.148000
     44 H14         -3.6980     4.3040    -2.5320 ho         1 BKK       0.511000
     45 H15          0.1980     3.2690    -0.2090 h1         1 BKK       0.061700
     46 H16          1.1300     2.3970    -1.9250 ho         1 BKK       0.514000
     47 H17         -1.0330    -1.6930     1.2190 ho         1 BKK       0.528000
     48 F2           8.1240    -0.1530     1.5770 f          1 BKK      -0.155500
     49 CL          -7.7480    -2.5680     2.0310 cl         1 BKK      -0.197000
@<TRIPOS>BOND
     1     1     3 1   
     2     1    23 1   
     3     1    26 1   
     4     1    31 1   
     5     2     5 1   
     6     2    21 1   
     7     2    23 1   
     8     2    32 1   
     9     3     4 1   
    10     3    25 1   
    11     3    33 1   
    12     4    20 1   
    13     4    21 1   
    14     4    34 1   
    15     5    22 1   
    16     5    35 1   
    17     5    36 1   
    18     6    13 2   
    19     6    26 1   
    20     6    37 1   
    21     7    10 ar  
    22     7    14 ar  
    23     7    38 1   
    24     8     9 ar  
    25     8    15 ar  
    26     8    30 1   
    27     9    10 ar  
    28     9    29 1   
    29    10    48 1   
    30    11    12 ar  
    31    11    16 ar  
    32    11    39 1   
    33    12    19 ar  
    34    12    40 1   
    35    13    14 1   
    36    13    27 1   
    37    14    15 ar  
    38    15    41 1   
    39    16    17 ar  
    40    16    49 1   
    41    17    18 ar  
    42    17    42 1   
    43    18    19 ar  
    44    18    20 1   
    45    19    43 1   
    46    22    44 1   
    47    23    24 1   
    48    23    45 1   
    49    24    46 1   
    50    25    47 1   
    51    26    28 1   
    52    27    28 2   
@<TRIPOS>SUBSTRUCTURE
     1 BKK         1 TEMP              0 ****  ****    0 ROOT
