@<TRIPOS>MOLECULE
BKK
   49    52     1     0     0
SMALL
No Charge or Current Charge


@<TRIPOS>ATOM
      1 C1           0.1010     1.4670     0.6690 c6         1 BKK       0.065300
      2 C2          -1.8270     2.4700    -0.6190 c6         1 BKK       0.150300
      3 C3          -0.6620     0.1030     0.6730 c6         1 BKK       0.150300
      4 C4          -2.2000     0.3590     0.5170 c6         1 BKK       0.246300
      5 C5          -2.3340     3.3050    -1.8400 c3         1 BKK       0.172600
      6 C6           2.3590     0.3830     0.1580 cc         1 BKK      -0.176000
      7 C10          6.1120     0.3790     0.7940 ca         1 BKK      -0.135000
      8 C11          6.0610    -1.7720    -1.0070 ca         1 BKK       0.160000
      9 C12          7.2840    -1.3570    -0.4540 ca         1 BKK       0.087000
     10 C13          7.3040    -0.2790     0.4470 ca         1 BKK       0.160000
     11 C14         -7.6550    -0.1180     0.3260 ca         1 BKK      -0.089000
     12 C15         -6.7100     0.8930     0.5680 ca         1 BKK      -0.104000
     13 C7           3.6200     0.6610     0.6060 cd         1 BKK       0.237500
     14 C8           4.8760    -0.0310     0.2430 ca         1 BKK      -0.058500
     15 C9           4.8670    -1.1160    -0.6640 ca         1 BKK      -0.135000
     16 C19         -7.2250    -1.4350     0.1050 ca         1 BKK       0.115000
     17 C18         -5.8550    -1.7430     0.1230 ca         1 BKK      -0.073000
     18 C17         -4.8990    -0.7370     0.3610 ca         1 BKK      -0.109000
     19 C16         -5.3360     0.5880     0.5870 ca         1 BKK      -0.083000
     20 S           -3.1630    -1.2200     0.3730 ss         1 BKK      -0.148000
     21 O2          -2.4540     1.1630    -0.6570 os         1 BKK      -0.407000
     22 O3          -3.7630     3.4980    -1.8370 oh         1 BKK      -0.715000
     23 C           -0.2720     2.3190    -0.5840 c6         1 BKK       0.133300
     24 O            0.2220     1.6990    -1.7950 oh         1 BKK      -0.705000
     25 O1          -0.3750    -0.6300     1.8870 oh         1 BKK      -0.704000
     26 N            1.5720     1.3110     0.8020 na         1 BKK       0.135800
     27 N2           3.5650     1.7280     1.4790 nd         1 BKK      -0.346000
     28 N1           2.3260     2.1230     1.5970 nc         1 BKK      -0.191800
     29 F1           8.4350    -1.9910    -0.7870 f          1 BKK      -0.143000
     30 F            6.0250    -2.8080    -1.8770 f          1 BKK      -0.155500
     31 H1          -0.2350     2.0250     1.5550 h1         1 BKK       0.109700
     32 H2          -2.1550     2.9910     0.2930 h1         1 BKK       0.058700
     33 H3          -0.3360    -0.4790    -0.2020 h1         1 BKK       0.069700
     34 H4          -2.5710     0.8760     1.4140 h2         1 BKK       0.073700
     35 H5          -1.8240     4.2780    -1.8230 h1         1 BKK       0.037200
     36 H6          -2.0270     2.7920    -2.7620 h1         1 BKK       0.037200
     37 H7           1.9790    -0.3590    -0.5290 h4         1 BKK       0.178000
     38 H8           6.1580     1.2090     1.4940 ha         1 BKK       0.148500
     39 H9          -8.7160     0.1180     0.3120 ha         1 BKK       0.132000
     40 H10         -7.0400     1.9150     0.7400 ha         1 BKK       0.123000
     41 H11          3.9380    -1.4610    -1.1090 ha         1 BKK       0.148500
     42 H12         -5.5350    -2.7670    -0.0500 ha         1 BKK       0.139000
     43 H13         -4.6330     1.3930     0.7760 ha         1 BKK       0.148000
     44 H14         -3.9950     3.9430    -2.6860 ho         1 BKK       0.511000
     45 H15          0.1660     3.3220    -0.4680 h1         1 BKK       0.061700
     46 H16          1.0980     2.1030    -2.0010 ho         1 BKK       0.514000
     47 H17         -0.7220    -1.5460     1.7710 ho         1 BKK       0.528000
     48 F2           8.4730     0.1330     0.9900 f          1 BKK      -0.155500
     49 Cl          -8.4060    -2.7040    -0.1960 cl         1 BKK      -0.197000
@<TRIPOS>BOND
     1     1     3 1   
     2     1    23 1   
     3     1    26 1   
     4     1    31 1   
     5     2     5 1   
     6     2    21 1   
     7     2    23 1   
     8     2    32 1   
     9     3     4 1   
    10     3    25 1   
    11     3    33 1   
    12     4    20 1   
    13     4    21 1   
    14     4    34 1   
    15     5    22 1   
    16     5    35 1   
    17     5    36 1   
    18     6    13 2   
    19     6    26 1   
    20     6    37 1   
    21     7    10 ar  
    22     7    14 ar  
    23     7    38 1   
    24     8     9 ar  
    25     8    15 ar  
    26     8    30 1   
    27     9    10 ar  
    28     9    29 1   
    29    10    48 1   
    30    11    12 ar  
    31    11    16 ar  
    32    11    39 1   
    33    12    19 ar  
    34    12    40 1   
    35    13    14 1   
    36    13    27 1   
    37    14    15 ar  
    38    15    41 1   
    39    16    17 ar  
    40    16    49 1   
    41    17    18 ar  
    42    17    42 1   
    43    18    19 ar  
    44    18    20 1   
    45    19    43 1   
    46    22    44 1   
    47    23    24 1   
    48    23    45 1   
    49    24    46 1   
    50    25    47 1   
    51    26    28 1   
    52    27    28 2   
@<TRIPOS>SUBSTRUCTURE
     1 BKK         1 TEMP              0 ****  ****    0 ROOT
