@<TRIPOS>MOLECULE
BKL
   76    79     1     0     0
SMALL
No Charge or Current Charge


@<TRIPOS>ATOM
      1 C10         26.3010   -24.8390   -42.2840 c3         1 BKL      -0.148400
      2 C13         29.2580   -24.1850   -43.1850 c3         1 BKL      -0.080100
      3 C15         30.0700   -21.1030   -42.6020 c3         1 BKL      -0.048700
      4 C21         30.0390   -20.7440   -46.5260 c6         1 BKL       0.373400
      5 C22         30.4360   -22.1600   -47.1390 c3         1 BKL       0.207500
      6 C24         29.4010   -24.4870   -46.9510 ce         1 BKL      -0.158000
      7 C26         27.3300   -25.5640   -47.9200 c2         1 BKL      -0.094400
      8 C28         27.2920   -24.7680   -49.2170 c3         1 BKL      -0.061900
      9 C01         25.4370   -27.7470   -43.7270 ca         1 BKL       0.085000
     10 C02         26.2140   -28.5800   -44.5610 ca         1 BKL       0.111100
     11 C03         26.4210   -28.2150   -45.9100 ca         1 BKL      -0.120000
     12 C04         25.8690   -27.0230   -46.4150 ca         1 BKL      -0.063300
     13 C05         25.0810   -26.2120   -45.5810 ca         1 BKL      -0.094000
     14 C06         24.8240   -26.5830   -44.2490 ca         1 BKL      -0.037000
     15 N07         24.1440   -25.6490   -43.3940 n          1 BKL      -0.239400
     16 C08         24.7670   -24.9080   -42.3550 c          1 BKL       0.620100
     17 O09         24.0950   -24.2930   -41.5320 o          1 BKL      -0.598100
     18 C11         26.7920   -23.4650   -42.7900 c3         1 BKL       0.186300
     19 C12         28.2920   -23.1860   -42.5400 cx         1 BKL       0.069000
     20 C14         28.6940   -21.7430   -42.3040 cx         1 BKL       0.087300
     21 C16         30.5380   -21.1740   -44.0970 c6         1 BKL       0.202300
     22 O17         31.6210   -20.2310   -44.2300 os         1 BKL      -0.452100
     23 C18         32.0410   -19.6960   -45.4220 c          1 BKL       0.719100
     24 O19         33.0300   -18.9930   -45.5150 o          1 BKL      -0.542000
     25 N20         31.2070   -19.9060   -46.4870 ns         1 BKL      -0.575900
     26 C23         29.3020   -23.1690   -47.2310 c2         1 BKL      -0.253200
     27 C25         28.2730   -25.4250   -46.9530 ce         1 BKL      -0.186000
     28 C27         26.1830   -26.5710   -47.8380 c3         1 BKL       0.001100
     29 O29         30.9820   -21.9780   -48.4710 os         1 BKL      -0.440000
     30 C30         31.6410   -23.1240   -49.0440 c3         1 BKL       0.143900
     31 C31         29.4370   -20.8370   -45.1140 c6         1 BKL      -0.159400
     32 O32         29.1110   -20.0770   -47.3670 oh         1 BKL      -0.693000
     33 C33         31.1840   -21.5130   -41.5970 c3         1 BKL      -0.081100
     34 O34         28.6450   -22.7090   -41.2230 op         1 BKL      -0.414000
     35 O35         26.4660   -23.3470   -44.1810 oh         1 BKL      -0.715000
     36 C36         22.7180   -25.3860   -43.6760 c3         1 BKL       0.098300
     37 O37         26.7690   -29.7280   -44.0190 os         1 BKL      -0.348100
     38 C38         27.5850   -30.6300   -44.7880 c3         1 BKL       0.148900
     39 Cl3         25.1870   -28.1930   -42.0320 cl         1 BKL      -0.165000
     40 H101        26.7650   -25.6200   -42.8870 hc         1 BKL       0.081200
     41 H102        26.6040   -24.9480   -41.2370 hc         1 BKL       0.081200
     42 H132        30.2840   -24.0590   -42.8280 hc         1 BKL       0.053033
     43 H133        28.9800   -25.2220   -42.9700 hc         1 BKL       0.053033
     44 H131        29.2660   -24.0640   -44.2720 hc         1 BKL       0.053033
     45 H151        29.9110   -20.0350   -42.4020 hc         1 BKL       0.069700
     46 H221        31.2150   -22.5780   -46.4890 h1         1 BKL       0.039700
     47 H241        30.3510   -24.8910   -46.5940 ha         1 BKL       0.165000
     48 H282        28.2670   -24.3340   -49.4650 hc         1 BKL       0.045700
     49 H283        27.0060   -25.4000   -50.0660 hc         1 BKL       0.045700
     50 H281        26.5660   -23.9490   -49.1520 hc         1 BKL       0.045700
     51 H031        27.0330   -28.8250   -46.5670 ha         1 BKL       0.130000
     52 H051        24.6900   -25.2700   -45.9610 ha         1 BKL       0.140000
     53 H111        26.2300   -22.7080   -42.2230 h1         1 BKL       0.066700
     54 H141        27.8870   -21.0100   -42.2930 h1         1 BKL       0.074700
     55 H161        30.9280   -22.1810   -44.3040 h1         1 BKL       0.059700
     56 H201        31.5420   -19.5460   -47.3690 hn         1 BKL       0.345500
     57 H231        28.3500   -22.7330   -47.5310 ha         1 BKL       0.199000
     58 H251        28.2540   -26.0910   -46.0890 ha         1 BKL       0.183000
     59 H272        25.2750   -26.1350   -48.2730 hc         1 BKL       0.058700
     60 H271        26.4170   -27.4400   -48.4650 hc         1 BKL       0.058700
     61 H301        32.0950   -22.8570   -50.0070 h1         1 BKL       0.033033
     62 H302        32.4370   -23.4890   -48.3820 h1         1 BKL       0.033033
     63 H303        30.9320   -23.9420   -49.2230 h1         1 BKL       0.033033
     64 H312        28.9700   -19.8820   -44.8360 hc         1 BKL       0.073700
     65 H311        28.6420   -21.5930   -45.0940 hc         1 BKL       0.073700
     66 H321        29.1040   -19.1470   -47.0570 ho         1 BKL       0.513000
     67 H333        30.8510   -21.3590   -40.5630 hc         1 BKL       0.048367
     68 H332        31.4730   -22.5620   -41.7100 hc         1 BKL       0.048367
     69 H331        32.0840   -20.9030   -41.7410 hc         1 BKL       0.048367
     70 H351        26.4760   -22.3910   -44.4100 ho         1 BKL       0.504000
     71 H362        22.1120   -25.6480   -42.7990 h1         1 BKL       0.045700
     72 H363        22.5770   -24.3240   -43.9120 h1         1 BKL       0.045700
     73 H361        22.3820   -25.9890   -44.5300 h1         1 BKL       0.045700
     74 H381        27.9140   -31.4700   -44.1640 h1         1 BKL       0.040367
     75 H383        27.0210   -31.0390   -45.6370 h1         1 BKL       0.040367
     76 H382        28.4780   -30.1200   -45.1700 h1         1 BKL       0.040367
@<TRIPOS>BOND
     1     1    16 1   
     2     1    18 1   
     3     1    40 1   
     4     1    41 1   
     5     2    19 1   
     6     2    42 1   
     7     2    43 1   
     8     2    44 1   
     9     3    20 1   
    10     3    21 1   
    11     3    33 1   
    12     3    45 1   
    13     4     5 1   
    14     4    25 1   
    15     4    31 1   
    16     4    32 1   
    17     5    26 1   
    18     5    29 1   
    19     5    46 1   
    20     6    26 2   
    21     6    27 1   
    22     6    47 1   
    23     7     8 1   
    24     7    27 2   
    25     7    28 1   
    26     8    48 1   
    27     8    49 1   
    28     8    50 1   
    29     9    10 ar  
    30     9    14 ar  
    31     9    39 1   
    32    10    11 ar  
    33    10    37 1   
    34    11    12 ar  
    35    11    51 1   
    36    12    13 ar  
    37    12    28 1   
    38    13    14 ar  
    39    13    52 1   
    40    14    15 1   
    41    15    16 1   
    42    15    36 1   
    43    16    17 2   
    44    18    19 1   
    45    18    35 1   
    46    18    53 1   
    47    19    20 1   
    48    19    34 1   
    49    20    34 1   
    50    20    54 1   
    51    21    22 1   
    52    21    31 1   
    53    21    55 1   
    54    22    23 1   
    55    23    24 2   
    56    23    25 1   
    57    25    56 1   
    58    26    57 1   
    59    27    58 1   
    60    28    59 1   
    61    28    60 1   
    62    29    30 1   
    63    30    61 1   
    64    30    62 1   
    65    30    63 1   
    66    31    64 1   
    67    31    65 1   
    68    32    66 1   
    69    33    67 1   
    70    33    68 1   
    71    33    69 1   
    72    35    70 1   
    73    36    71 1   
    74    36    72 1   
    75    36    73 1   
    76    37    38 1   
    77    38    74 1   
    78    38    75 1   
    79    38    76 1   
@<TRIPOS>SUBSTRUCTURE
     1 BKL         1 TEMP              0 ****  ****    0 ROOT
