@<TRIPOS>MOLECULE
BKL
   76    79     1     0     0
SMALL
abcg2


@<TRIPOS>ATOM
      1 C10         26.4800   -24.7710   -42.5610 c3         1 BKL      -0.148400
      2 C13         29.3670   -24.0870   -43.0900 c3         1 BKL      -0.080100
      3 C15         30.0330   -20.9530   -42.6320 c3         1 BKL      -0.048700
      4 C21         30.0390   -20.6300   -46.5170 c6         1 BKL       0.373400
      5 C22         30.4650   -21.9790   -47.1400 c3         1 BKL       0.207500
      6 C24         29.3900   -24.1920   -46.8120 ce         1 BKL      -0.158000
      7 C26         27.5600   -25.5200   -47.9140 c2         1 BKL      -0.094400
      8 C28         27.6620   -24.9000   -49.2740 c3         1 BKL      -0.061900
      9 C01         25.6080   -27.9690   -43.8600 ca         1 BKL       0.085000
     10 C02         26.3270   -28.7840   -44.7280 ca         1 BKL       0.111100
     11 C03         26.6020   -28.3280   -46.0130 ca         1 BKL      -0.120000
     12 C04         26.1770   -27.0770   -46.4380 ca         1 BKL      -0.063300
     13 C05         25.4650   -26.2740   -45.5510 ca         1 BKL      -0.094000
     14 C06         25.1890   -26.7020   -44.2640 ca         1 BKL      -0.037000
     15 N07         24.4360   -25.8930   -43.3820 n          1 BKL      -0.239400
     16 C08         24.9730   -24.9130   -42.6140 c          1 BKL       0.620100
     17 O09         24.2580   -24.1790   -41.9490 o          1 BKL      -0.598100
     18 C11         26.8980   -23.3630   -42.9580 c3         1 BKL       0.186300
     19 C12         28.3610   -23.0680   -42.6330 cx         1 BKL       0.069000
     20 C14         28.6890   -21.6500   -42.4290 cx         1 BKL       0.087300
     21 C16         30.5380   -21.0430   -44.0770 c6         1 BKL       0.202300
     22 O17         31.5800   -20.0600   -44.1740 os         1 BKL      -0.452100
     23 C18         31.9370   -19.4920   -45.3280 c          1 BKL       0.719100
     24 O19         32.8980   -18.7550   -45.3380 o          1 BKL      -0.542000
     25 N20         31.1920   -19.7550   -46.4230 ns         1 BKL      -0.575900
     26 C23         29.3310   -22.9470   -47.2900 c2         1 BKL      -0.253200
     27 C25         28.3440   -25.2090   -46.8750 ce         1 BKL      -0.186000
     28 C27         26.4850   -26.5780   -47.8190 c3         1 BKL       0.001100
     29 O29         31.0490   -21.6600   -48.3820 os         1 BKL      -0.440000
     30 C30         31.7810   -22.7130   -48.9590 c3         1 BKL       0.143900
     31 C31         29.4660   -20.7810   -45.1130 c6         1 BKL      -0.159400
     32 O32         29.1050   -20.0790   -47.3940 oh         1 BKL      -0.693000
     33 C33         31.1030   -21.3640   -41.6230 c3         1 BKL      -0.081100
     34 O34         28.5380   -22.5340   -41.3290 op         1 BKL      -0.414000
     35 O35         26.6400   -23.2260   -44.3370 oh         1 BKL      -0.715000
     36 C36         22.9930   -26.0940   -43.3570 c3         1 BKL       0.098300
     37 O37         26.7660   -29.9950   -44.3140 os         1 BKL      -0.348100
     38 C38         25.9240   -31.0820   -44.6820 c3         1 BKL       0.148900
     39 CL3         25.2590   -28.5170   -42.2660 cl         1 BKL      -0.165000
     40 H101        26.9990   -25.5070   -43.1740 hc         1 BKL       0.081200
     41 H102        26.7780   -24.9520   -41.5240 hc         1 BKL       0.081200
     42 H132        30.3920   -23.7770   -42.9040 hc         1 BKL       0.053033
     43 H133        29.2180   -25.0400   -42.5810 hc         1 BKL       0.053033
     44 H131        29.2640   -24.2610   -44.1600 hc         1 BKL       0.053033
     45 H151        29.8240   -19.8900   -42.4640 hc         1 BKL       0.069700
     46 H221        31.2210   -22.4270   -46.4760 h1         1 BKL       0.039700
     47 H241        30.2810   -24.4810   -46.2570 ha         1 BKL       0.165000
     48 H282        28.6170   -24.4060   -49.4420 hc         1 BKL       0.045700
     49 H283        27.5280   -25.6600   -50.0470 hc         1 BKL       0.045700
     50 H281        26.8730   -24.1590   -49.4270 hc         1 BKL       0.045700
     51 H031        27.1670   -28.9660   -46.6830 ha         1 BKL       0.130000
     52 H051        25.1310   -25.2900   -45.8540 ha         1 BKL       0.140000
     53 H111        26.2950   -22.6540   -42.3760 h1         1 BKL       0.066700
     54 H141        27.8500   -20.9610   -42.5410 h1         1 BKL       0.074700
     55 H161        30.9920   -22.0250   -44.2490 h1         1 BKL       0.059700
     56 H201        31.5720   -19.4090   -47.2920 hn         1 BKL       0.345500
     57 H231        28.4440   -22.6040   -47.8140 ha         1 BKL       0.199000
     58 H251        28.2240   -25.7740   -45.9550 ha         1 BKL       0.183000
     59 H272        25.5720   -26.1650   -48.2620 hc         1 BKL       0.058700
     60 H271        26.7650   -27.4150   -48.4660 hc         1 BKL       0.058700
     61 H301        32.2820   -22.3170   -49.8410 h1         1 BKL       0.033033
     62 H302        32.5430   -23.1050   -48.2750 h1         1 BKL       0.033033
     63 H303        31.1450   -23.5480   -49.2700 h1         1 BKL       0.033033
     64 H312        28.9300   -19.8610   -44.8520 hc         1 BKL       0.073700
     65 H311        28.7430   -21.5940   -45.1070 hc         1 BKL       0.073700
     66 H321        28.7550   -19.2650   -47.0120 ho         1 BKL       0.513000
     67 H333        30.7410   -21.2440   -40.6040 hc         1 BKL       0.048367
     68 H332        31.4230   -22.3980   -41.7440 hc         1 BKL       0.048367
     69 H331        31.9860   -20.7340   -41.7270 hc         1 BKL       0.048367
     70 H351        26.5870   -22.2880   -44.5500 ho         1 BKL       0.504000
     71 H362        22.6280   -26.1580   -42.3330 h1         1 BKL       0.045700
     72 H363        22.4680   -25.2850   -43.8650 h1         1 BKL       0.045700
     73 H361        22.7580   -27.0260   -43.8630 h1         1 BKL       0.045700
     74 H381        26.3810   -31.9870   -44.2880 h1         1 BKL       0.040367
     75 H383        24.9230   -30.9760   -44.2560 h1         1 BKL       0.040367
     76 H382        25.8380   -31.1730   -45.7680 h1         1 BKL       0.040367
@<TRIPOS>BOND
     1     1    16 1   
     2     1    18 1   
     3     1    40 1   
     4     1    41 1   
     5     2    19 1   
     6     2    42 1   
     7     2    43 1   
     8     2    44 1   
     9     3    20 1   
    10     3    21 1   
    11     3    33 1   
    12     3    45 1   
    13     4     5 1   
    14     4    25 1   
    15     4    31 1   
    16     4    32 1   
    17     5    26 1   
    18     5    29 1   
    19     5    46 1   
    20     6    26 2   
    21     6    27 1   
    22     6    47 1   
    23     7     8 1   
    24     7    27 2   
    25     7    28 1   
    26     8    48 1   
    27     8    49 1   
    28     8    50 1   
    29     9    10 ar  
    30     9    14 ar  
    31     9    39 1   
    32    10    11 ar  
    33    10    37 1   
    34    11    12 ar  
    35    11    51 1   
    36    12    13 ar  
    37    12    28 1   
    38    13    14 ar  
    39    13    52 1   
    40    14    15 1   
    41    15    16 1   
    42    15    36 1   
    43    16    17 2   
    44    18    19 1   
    45    18    35 1   
    46    18    53 1   
    47    19    20 1   
    48    19    34 1   
    49    20    34 1   
    50    20    54 1   
    51    21    22 1   
    52    21    31 1   
    53    21    55 1   
    54    22    23 1   
    55    23    24 2   
    56    23    25 1   
    57    25    56 1   
    58    26    57 1   
    59    27    58 1   
    60    28    59 1   
    61    28    60 1   
    62    29    30 1   
    63    30    61 1   
    64    30    62 1   
    65    30    63 1   
    66    31    64 1   
    67    31    65 1   
    68    32    66 1   
    69    33    67 1   
    70    33    68 1   
    71    33    69 1   
    72    35    70 1   
    73    36    71 1   
    74    36    72 1   
    75    36    73 1   
    76    37    38 1   
    77    38    74 1   
    78    38    75 1   
    79    38    76 1   
@<TRIPOS>SUBSTRUCTURE
     1 BKL         1 TEMP              0 ****  ****    0 ROOT
