@<TRIPOS>MOLECULE
BKM
   94    93     1     0     0
SMALL
No Charge or Current Charge


@<TRIPOS>ATOM
      1 C01         14.2060    -3.3870    -0.2830 c2         1 BKM      -0.291000
      2 C02         13.3020    -2.3960    -0.4660 ce         1 BKM      -0.199000
      3 C03         12.6450    -1.5910     0.5870 ce         1 BKM       0.008800
      4 C04         11.5570    -0.8290     0.2470 cf         1 BKM      -0.318200
      5 C05         10.7120     0.0460     1.1220 c          1 BKM       0.575300
      6 C07          9.5510     0.7750     0.4260 c3         1 BKM      -0.176400
      7 C08          8.1800     0.0740     0.6480 c3         1 BKM      -0.047700
      8 C09          8.1640    -1.3620     0.0620 c3         1 BKM      -0.087100
      9 C10          7.0270     0.9620     0.0900 c3         1 BKM      -0.071400
     10 C11          5.5670     0.4510     0.2860 c3         1 BKM      -0.057700
     11 C12          5.2170     0.2240     1.7810 c3         1 BKM      -0.088100
     12 C13          4.5670     1.4210    -0.4090 c3         1 BKM      -0.071400
     13 C14          3.0980     0.9220    -0.4650 c3         1 BKM      -0.109400
     14 C15          2.1630     1.8040    -1.3360 c3         1 BKM       0.174300
     15 C17          0.6960     1.3010    -1.3990 c3         1 BKM      -0.202700
     16 C18          0.5490    -0.1350    -1.9700 c3         1 BKM      -0.079100
     17 C19         -0.1600     2.2900    -2.2210 c          1 BKM       0.586100
     18 C21         -1.2130     3.1170    -1.4740 c3         1 BKM      -0.209400
     19 C22         -2.6190     2.5170    -1.6760 c3         1 BKM       0.194300
     20 C24         -3.7860     3.4390    -1.1920 c3         1 BKM      -0.092700
     21 C25         -3.6550     3.8720     0.2950 c3         1 BKM      -0.090100
     22 C26         -5.2090     2.8660    -1.5020 c3         1 BKM       0.181300
     23 C27         -5.4640     2.5690    -2.9950 c3         1 BKM      -0.104100
     24 C31         -6.1590     0.2010     0.9830 c3         1 BKM      -0.158400
     25 C32         -7.5470    -0.4380     0.8060 c3         1 BKM       0.253500
     26 C34         -7.6830    -1.7500     1.5940 ce         1 BKM      -0.274400
     27 C35         -6.9560    -2.9430     0.9970 c          1 BKM       0.715200
     28 C38         -8.3350    -1.7910     2.8230 cf         1 BKM      -0.126400
     29 C39         -8.8260    -0.4980     3.4910 c3         1 BKM      -0.044900
     30 C40         -8.6620    -3.0820     3.5720 c          1 BKM       0.754200
     31 C43         13.2430    -1.6610     1.9930 c3         1 BKM      -0.049200
     32 C44         12.5580    -2.7130     2.8880 c3         1 BKM      -0.081100
     33 O06         10.9030     0.1950     2.3200 o          1 BKM      -0.533100
     34 O16          2.1560     3.1310    -0.8020 oh         1 BKM      -0.653000
     35 O20          0.0020     2.4280    -3.4280 o          1 BKM      -0.493100
     36 O23         -2.6860     1.2650    -0.9980 oh         1 BKM      -0.624000
     37 O28         -5.3880     1.6180    -0.7980 os         1 BKM      -0.451100
     38 O30         -6.6380     2.5730     0.8870 o          1 BKM      -0.521000
     39 O33         -7.8070    -0.6570    -0.5710 oh         1 BKM      -0.750000
     40 O36         -6.7720    -2.9690    -0.2140 o          1 BKM      -0.727000
     41 O37         -6.4170    -3.7420     1.7450 o          1 BKM      -0.727000
     42 O41         -8.8080    -3.0430     4.7870 o          1 BKM      -0.748500
     43 O42         -8.9540    -4.0830     2.9300 o          1 BKM      -0.748500
     44 H1          14.5510    -3.7080     0.7000 ha         1 BKM       0.165000
     45 H2          14.6270    -3.9280    -1.1320 ha         1 BKM       0.165000
     46 H3          12.9980    -2.1630    -1.4890 ha         1 BKM       0.172000
     47 H4          11.2330    -0.8650    -0.7910 ha         1 BKM       0.177000
     48 H5           9.4940     1.7900     0.8360 hc         1 BKM       0.059700
     49 H6           9.7340     0.8250    -0.6540 hc         1 BKM       0.059700
     50 H7           8.0450    -0.0120     1.7330 hc         1 BKM       0.064700
     51 H8           7.2270    -1.8780     0.3030 hc         1 BKM       0.034033
     52 H9           8.2750    -1.3410    -1.0290 hc         1 BKM       0.034033
     53 H10          8.9750    -1.9700     0.4780 hc         1 BKM       0.034033
     54 H11          7.1030     1.9570     0.5470 hc         1 BKM       0.036700
     55 H12          7.2020     1.1090    -0.9840 hc         1 BKM       0.036700
     56 H13          5.4750    -0.5140    -0.2260 hc         1 BKM       0.045700
     57 H14          5.2950     1.1600     2.3470 hc         1 BKM       0.032033
     58 H15          4.2000    -0.1660     1.8980 hc         1 BKM       0.032033
     59 H16          5.8880    -0.5120     2.2380 hc         1 BKM       0.032033
     60 H17          4.6060     2.3940     0.0950 hc         1 BKM       0.044700
     61 H18          4.9050     1.5920    -1.4390 hc         1 BKM       0.044700
     62 H19          3.1070    -0.0970    -0.8690 hc         1 BKM       0.043200
     63 H20          2.6850     0.8580     0.5480 hc         1 BKM       0.043200
     64 H21          2.5630     1.8180    -2.3610 h1         1 BKM       0.086700
     65 H22          0.3080     1.2870    -0.3740 hc         1 BKM       0.048700
     66 H23          0.9970    -0.8780    -1.3000 hc         1 BKM       0.041700
     67 H24         -0.5100    -0.3950    -2.0860 hc         1 BKM       0.041700
     68 H25          1.0300    -0.2190    -2.9520 hc         1 BKM       0.041700
     69 H26         -0.9860     3.1330    -0.4020 hc         1 BKM       0.055700
     70 H27         -1.2070     4.1360    -1.8770 hc         1 BKM       0.055700
     71 H28         -2.7480     2.3600    -2.7560 h1         1 BKM       0.081700
     72 H29         -3.7060     4.3630    -1.7770 hc         1 BKM       0.032700
     73 H30         -3.6230     3.0040     0.9650 hc         1 BKM       0.035367
     74 H31         -2.7460     4.4620     0.4570 hc         1 BKM       0.035367
     75 H32         -4.5050     4.5000     0.5900 hc         1 BKM       0.035367
     76 H33         -5.9570     3.6120    -1.2010 h1         1 BKM       0.052700
     77 H34         -6.5160     2.3030    -3.1510 hc         1 BKM       0.043700
     78 H35         -5.2440     3.4510    -3.6070 hc         1 BKM       0.043700
     79 H36         -4.8490     1.7340    -3.3500 hc         1 BKM       0.043700
     80 H37         -5.4080    -0.4410     0.5110 hc         1 BKM       0.075700
     81 H38         -5.9550     0.2900     2.0550 hc         1 BKM       0.075700
     82 H39         -8.2840     0.2880     1.1700 h1         1 BKM       0.028700
     83 H40         -9.2160    -0.6410     4.5040 hc         1 BKM       0.009367
     84 H41         -8.0180     0.2390     3.5710 hc         1 BKM       0.009367
     85 H42         -9.6390    -0.0420     2.9120 hc         1 BKM       0.009367
     86 H43         14.3160    -1.8800     1.9510 hc         1 BKM       0.056700
     87 H44         13.2010    -0.6850     2.4870 hc         1 BKM       0.056700
     88 H45         12.6530    -3.7140     2.4510 hc         1 BKM       0.036700
     89 H46         13.0160    -2.7270     3.8830 hc         1 BKM       0.036700
     90 H47         11.4910    -2.4890     3.0030 hc         1 BKM       0.036700
     91 H48          2.1720     3.0430     0.1750 ho         1 BKM       0.433000
     92 H49         -3.6500     1.1010    -0.8650 ho         1 BKM       0.447000
     93 H50         -7.4270    -1.5750    -0.7060 ho         1 BKM       0.515000
     94 C29         -6.1140     1.5960     0.3700 c          1 BKM       0.603100
@<TRIPOS>BOND
     1     1     2 2   
     2     1    44 1   
     3     1    45 1   
     4     2     3 1   
     5     2    46 1   
     6     3     4 2   
     7     3    31 1   
     8     4     5 1   
     9     4    47 1   
    10     5     6 1   
    11     5    33 2   
    12     6     7 1   
    13     6    48 1   
    14     6    49 1   
    15     7     8 1   
    16     7     9 1   
    17     7    50 1   
    18     8    51 1   
    19     8    52 1   
    20     8    53 1   
    21     9    10 1   
    22     9    54 1   
    23     9    55 1   
    24    10    11 1   
    25    10    12 1   
    26    10    56 1   
    27    11    57 1   
    28    11    58 1   
    29    11    59 1   
    30    12    13 1   
    31    12    60 1   
    32    12    61 1   
    33    13    14 1   
    34    13    62 1   
    35    13    63 1   
    36    14    15 1   
    37    14    34 1   
    38    14    64 1   
    39    15    16 1   
    40    15    17 1   
    41    15    65 1   
    42    16    66 1   
    43    16    67 1   
    44    16    68 1   
    45    17    18 1   
    46    17    35 2   
    47    18    19 1   
    48    18    69 1   
    49    18    70 1   
    50    19    20 1   
    51    19    36 1   
    52    19    71 1   
    53    20    21 1   
    54    20    22 1   
    55    20    72 1   
    56    21    73 1   
    57    21    74 1   
    58    21    75 1   
    59    22    23 1   
    60    22    37 1   
    61    22    76 1   
    62    23    77 1   
    63    23    78 1   
    64    23    79 1   
    65    24    25 1   
    66    24    80 1   
    67    24    81 1   
    68    24    94 1   
    69    25    26 1   
    70    25    39 1   
    71    25    82 1   
    72    26    27 1   
    73    26    28 2   
    74    27    40 1   
    75    27    41 1   
    76    28    29 1   
    77    28    30 1   
    78    29    83 1   
    79    29    84 1   
    80    29    85 1   
    81    30    42 1   
    82    30    43 1   
    83    31    32 1   
    84    31    86 1   
    85    31    87 1   
    86    32    88 1   
    87    32    89 1   
    88    32    90 1   
    89    34    91 1   
    90    36    92 1   
    91    37    94 1   
    92    38    94 2   
    93    39    93 1   
@<TRIPOS>SUBSTRUCTURE
     1 BKM         1 TEMP              0 ****  ****    0 ROOT
