@<TRIPOS>MOLECULE
BKM
   94    93     1     0     0
SMALL
abcg2


@<TRIPOS>ATOM
      1 C01         15.7070    -0.2340    -1.9480 c2         1 BKM      -0.291000
      2 C02         14.3800    -0.3510    -1.8730 ce         1 BKM      -0.199000
      3 C03         13.5400     0.0370    -0.7370 ce         1 BKM       0.008800
      4 C04         12.2160    -0.2140    -0.8500 cf         1 BKM      -0.318200
      5 C05         11.1590     0.0440     0.1410 c          1 BKM       0.575300
      6 C07          9.7550    -0.1880    -0.3710 c3         1 BKM      -0.176400
      7 C08          8.6570    -0.2470     0.6850 c3         1 BKM      -0.047700
      8 C09          8.7740    -1.5250     1.5130 c3         1 BKM      -0.087100
      9 C10          7.2950    -0.1350    -0.0060 c3         1 BKM      -0.071400
     10 C11          6.0650    -0.1800     0.9040 c3         1 BKM      -0.057700
     11 C12          6.1040     0.9210     1.9600 c3         1 BKM      -0.088100
     12 C13          4.7980    -0.0960     0.0490 c3         1 BKM      -0.071400
     13 C14          3.5050    -0.3250     0.8230 c3         1 BKM      -0.109400
     14 C15          2.2630    -0.3290    -0.0600 c3         1 BKM       0.174300
     15 C17          0.9860    -0.6480     0.7330 c3         1 BKM      -0.202700
     16 C18          0.9520    -2.0830     1.2550 c3         1 BKM      -0.079100
     17 C19         -0.2210    -0.4070    -0.1600 c          1 BKM       0.586100
     18 C21         -1.1710     0.6630     0.3020 c3         1 BKM      -0.209400
     19 C22         -2.4430     0.8080    -0.5230 c3         1 BKM       0.194300
     20 C24         -3.1830     2.1080    -0.1720 c3         1 BKM      -0.092700
     21 C25         -3.5130     2.2350     1.3160 c3         1 BKM      -0.090100
     22 C26         -4.4230     2.3870    -1.0250 c3         1 BKM       0.181300
     23 C27         -4.2180     2.2490    -2.5210 c3         1 BKM      -0.104100
     24 C31         -7.6420     0.8870     0.0550 c3         1 BKM      -0.158400
     25 C32         -9.0710     1.0920    -0.4590 c3         1 BKM       0.253500
     26 C34         -9.9840     0.0040     0.0790 ce         1 BKM      -0.274400
     27 C35         -9.8340    -1.3610    -0.5650 c          1 BKM       0.715200
     28 C38        -10.8650     0.2020     1.0710 cf         1 BKM      -0.126400
     29 C39        -11.0630     1.5010     1.8020 c3         1 BKM      -0.044900
     30 C40        -11.8090    -0.8620     1.6100 c          1 BKM       0.754200
     31 C43         14.2000     0.6340     0.4720 c3         1 BKM      -0.049200
     32 C44         14.6070    -0.4440     1.4790 c3         1 BKM      -0.081100
     33 O06         11.3720     0.4340     1.2740 o          1 BKM      -0.533100
     34 O16          2.1120     0.9000    -0.7500 oh         1 BKM      -0.653000
     35 O20         -0.3820    -1.0450    -1.1760 o          1 BKM      -0.493100
     36 O23         -3.2510    -0.3440    -0.4220 oh         1 BKM      -0.624000
     37 O28         -5.4780     1.4970    -0.6140 os         1 BKM      -0.451100
     38 O30         -7.0250     3.1160    -0.5990 o          1 BKM      -0.521000
     39 O33         -9.0880     1.1440    -1.8660 oh         1 BKM      -0.750000
     40 O36         -9.2820    -1.3830    -1.7070 o          1 BKM      -0.727000
     41 O37        -10.2360    -2.3640     0.0380 o          1 BKM      -0.727000
     42 O41        -11.5120    -1.3380     2.7220 o          1 BKM      -0.748500
     43 O42        -12.8520    -1.0530     0.9590 o          1 BKM      -0.748500
     44 H1          16.3120     0.1820    -1.1530 ha         1 BKM       0.165000
     45 H2          16.2360    -0.5670    -2.8290 ha         1 BKM       0.165000
     46 H3          13.8550    -0.7860    -2.7170 ha         1 BKM       0.172000
     47 H4          11.8680    -0.6530    -1.7790 ha         1 BKM       0.177000
     48 H5           9.5600     0.6260    -1.0830 hc         1 BKM       0.059700
     49 H6           9.7420    -1.0970    -0.9820 hc         1 BKM       0.059700
     50 H7           8.7810     0.6100     1.3530 hc         1 BKM       0.064700
     51 H8           8.0470    -1.5530     2.3270 hc         1 BKM       0.034033
     52 H9           8.6050    -2.4070     0.8900 hc         1 BKM       0.034033
     53 H10          9.7610    -1.6220     1.9650 hc         1 BKM       0.034033
     54 H11          7.2710     0.8000    -0.5800 hc         1 BKM       0.036700
     55 H12          7.2100    -0.9420    -0.7440 hc         1 BKM       0.036700
     56 H13          6.0510    -1.1480     1.4190 hc         1 BKM       0.045700
     57 H14          6.1010     1.9080     1.4910 hc         1 BKM       0.032033
     58 H15          5.2460     0.8700     2.6300 hc         1 BKM       0.032033
     59 H16          6.9970     0.8570     2.5830 hc         1 BKM       0.032033
     60 H17          4.7700     0.8790    -0.4490 hc         1 BKM       0.044700
     61 H18          4.8620    -0.8450    -0.7490 hc         1 BKM       0.044700
     62 H19          3.5710    -1.2810     1.3510 hc         1 BKM       0.043200
     63 H20          3.3760     0.4390     1.5980 hc         1 BKM       0.043200
     64 H21          2.3790    -1.0900    -0.8390 h1         1 BKM       0.086700
     65 H22          0.9360     0.0390     1.5870 hc         1 BKM       0.048700
     66 H23          1.7380    -2.2550     1.9890 hc         1 BKM       0.041700
     67 H24          0.0020    -2.3030     1.7450 hc         1 BKM       0.041700
     68 H25          1.0850    -2.7990     0.4430 hc         1 BKM       0.041700
     69 H26         -1.3970     0.4760     1.3580 hc         1 BKM       0.055700
     70 H27         -0.5980     1.5990     0.3030 hc         1 BKM       0.055700
     71 H28         -2.1510     0.8630    -1.5750 h1         1 BKM       0.081700
     72 H29         -2.4880     2.9200    -0.4180 hc         1 BKM       0.032700
     73 H30         -4.0950     1.3930     1.6970 hc         1 BKM       0.035367
     74 H31         -2.6080     2.3060     1.9180 hc         1 BKM       0.035367
     75 H32         -4.0960     3.1380     1.5060 hc         1 BKM       0.035367
     76 H33         -4.7240     3.4150    -0.8070 h1         1 BKM       0.052700
     77 H34         -5.0950     2.6030    -3.0630 hc         1 BKM       0.043700
     78 H35         -3.3680     2.8550    -2.8380 hc         1 BKM       0.043700
     79 H36         -4.0300     1.2180    -2.8180 hc         1 BKM       0.043700
     80 H37         -7.2630    -0.0960    -0.2300 hc         1 BKM       0.075700
     81 H38         -7.6330     0.9190     1.1500 hc         1 BKM       0.075700
     82 H39         -9.4080     2.0670    -0.1030 h1         1 BKM       0.028700
     83 H40        -12.1250     1.7530     1.8470 hc         1 BKM       0.009367
     84 H41        -10.7260     1.3990     2.8360 hc         1 BKM       0.009367
     85 H42        -10.5400     2.3500     1.3680 hc         1 BKM       0.009367
     86 H43         15.0860     1.1910     0.1650 hc         1 BKM       0.056700
     87 H44         13.5350     1.3460     0.9540 hc         1 BKM       0.056700
     88 H45         15.2580    -1.1900     1.0230 hc         1 BKM       0.036700
     89 H46         15.1460     0.0020     2.3150 hc         1 BKM       0.036700
     90 H47         13.7310    -0.9550     1.8770 hc         1 BKM       0.036700
     91 H48          2.1860     1.6170    -0.1110 ho         1 BKM       0.433000
     92 H49         -3.6720    -0.3560     0.4440 ho         1 BKM       0.447000
     93 H50         -9.0980     0.1820    -2.1080 ho         1 BKM       0.515000
     94 C29         -6.7070     1.9640    -0.4290 c          1 BKM       0.603100
@<TRIPOS>BOND
     1     1     2 2   
     2     1    44 1   
     3     1    45 1   
     4     2     3 1   
     5     2    46 1   
     6     3     4 2   
     7     3    31 1   
     8     4     5 1   
     9     4    47 1   
    10     5     6 1   
    11     5    33 2   
    12     6     7 1   
    13     6    48 1   
    14     6    49 1   
    15     7     8 1   
    16     7     9 1   
    17     7    50 1   
    18     8    51 1   
    19     8    52 1   
    20     8    53 1   
    21     9    10 1   
    22     9    54 1   
    23     9    55 1   
    24    10    11 1   
    25    10    12 1   
    26    10    56 1   
    27    11    57 1   
    28    11    58 1   
    29    11    59 1   
    30    12    13 1   
    31    12    60 1   
    32    12    61 1   
    33    13    14 1   
    34    13    62 1   
    35    13    63 1   
    36    14    15 1   
    37    14    34 1   
    38    14    64 1   
    39    15    16 1   
    40    15    17 1   
    41    15    65 1   
    42    16    66 1   
    43    16    67 1   
    44    16    68 1   
    45    17    18 1   
    46    17    35 2   
    47    18    19 1   
    48    18    69 1   
    49    18    70 1   
    50    19    20 1   
    51    19    36 1   
    52    19    71 1   
    53    20    21 1   
    54    20    22 1   
    55    20    72 1   
    56    21    73 1   
    57    21    74 1   
    58    21    75 1   
    59    22    23 1   
    60    22    37 1   
    61    22    76 1   
    62    23    77 1   
    63    23    78 1   
    64    23    79 1   
    65    24    25 1   
    66    24    80 1   
    67    24    81 1   
    68    24    94 1   
    69    25    26 1   
    70    25    39 1   
    71    25    82 1   
    72    26    27 1   
    73    26    28 2   
    74    27    40 1   
    75    27    41 1   
    76    28    29 1   
    77    28    30 1   
    78    29    83 1   
    79    29    84 1   
    80    29    85 1   
    81    30    42 1   
    82    30    43 1   
    83    31    32 1   
    84    31    86 1   
    85    31    87 1   
    86    32    88 1   
    87    32    89 1   
    88    32    90 1   
    89    34    91 1   
    90    36    92 1   
    91    37    94 1   
    92    38    94 2   
    93    39    93 1   
@<TRIPOS>SUBSTRUCTURE
     1 BKM         1 TEMP              0 ****  ****    0 ROOT
