@<TRIPOS>MOLECULE
BKN
   25    24     1     0     0
SMALL
No Charge or Current Charge


@<TRIPOS>ATOM
      1 CAA          4.4510     0.0260     0.9600 c3         1 BKN      -0.097100
      2 CAE          3.5400    -0.5650    -0.1280 c3         1 BKN       0.168600
      3 OAI          2.3670     0.2620    -0.2030 os         1 BKN      -0.458100
      4 CAK          1.4000    -0.0740    -1.1140 c          1 BKN       0.593100
      5 OAD          1.4530    -1.0480    -1.8530 o          1 BKN      -0.485000
      6 CAH          0.2060     0.8820    -1.0540 c3         1 BKN      -0.141400
      7 CAF         -0.8920     0.3510    -0.1030 c3         1 BKN      -0.057400
      8 CAG         -2.1140     1.2970    -0.0080 c3         1 BKN      -0.186400
      9 CAJ         -3.1860     0.7360     0.9380 c          1 BKN       0.570100
     10 OAC         -3.1190     0.8890     2.1500 o          1 BKN      -0.512100
     11 CAB         -4.3400    -0.0280     0.2900 c3         1 BKN      -0.201100
     12 H1           3.9400     0.0330     1.9300 hc         1 BKN       0.046033
     13 H2           5.3640    -0.5730     1.0570 hc         1 BKN       0.046033
     14 H3           4.7380     1.0530     0.7070 hc         1 BKN       0.046033
     15 H4           4.0750    -0.5760    -1.0870 h1         1 BKN       0.048700
     16 H5           3.2760    -1.5980     0.1370 h1         1 BKN       0.048700
     17 H6           0.5420     1.8500    -0.6640 hc         1 BKN       0.068200
     18 H7          -0.2140     0.9960    -2.0600 hc         1 BKN       0.068200
     19 H8          -1.2230    -0.6380    -0.4500 hc         1 BKN       0.068700
     20 H9          -0.4640     0.2090     0.8980 hc         1 BKN       0.068700
     21 H10         -1.7800     2.2720     0.3650 hc         1 BKN       0.058200
     22 H11         -2.5350     1.3960    -1.0150 hc         1 BKN       0.058200
     23 H12         -5.0430    -0.4350     1.0250 hc         1 BKN       0.060367
     24 H13         -4.8430     0.6310    -0.4260 hc         1 BKN       0.060367
     25 H14         -3.9310    -0.8080    -0.3610 hc         1 BKN       0.060367
@<TRIPOS>BOND
     1     1     2 1   
     2     1    12 1   
     3     1    13 1   
     4     1    14 1   
     5     2     3 1   
     6     2    15 1   
     7     2    16 1   
     8     3     4 1   
     9     4     5 2   
    10     4     6 1   
    11     6     7 1   
    12     6    17 1   
    13     6    18 1   
    14     7     8 1   
    15     7    19 1   
    16     7    20 1   
    17     8     9 1   
    18     8    21 1   
    19     8    22 1   
    20     9    10 2   
    21     9    11 1   
    22    11    23 1   
    23    11    24 1   
    24    11    25 1   
@<TRIPOS>SUBSTRUCTURE
     1 BKN         1 TEMP              0 ****  ****    0 ROOT
