@<TRIPOS>MOLECULE
BKN
   25    24     1     0     0
SMALL
bcc


@<TRIPOS>ATOM
      1 CAA          4.9450     0.6980    -0.0210 c3         1 BKN      -0.097100
      2 CAE          3.8550    -0.3460    -0.0020 c3         1 BKN       0.145400
      3 OAI          2.5920     0.3380    -0.0290 os         1 BKN      -0.434900
      4 CAK          1.4830    -0.3890     0.0040 c          1 BKN       0.642100
      5 OAD          1.4790    -1.5940     0.0500 o          1 BKN      -0.534000
      6 CAH          0.2560     0.4830    -0.0240 c3         1 BKN      -0.141400
      7 CAF         -1.0470    -0.2990     0.0070 c3         1 BKN      -0.057400
      8 CAG         -2.2370     0.6460    -0.0150 c3         1 BKN      -0.186400
      9 CAJ         -3.5860    -0.0270     0.0160 c          1 BKN       0.570100
     10 OAC         -3.7070    -1.2310     0.0460 o          1 BKN      -0.512100
     11 CAB         -4.7720     0.8990     0.0120 c3         1 BKN      -0.201100
     12 H1           4.8860     1.3540     0.8480 hc         1 BKN       0.046033
     13 H2           5.9150     0.2020     0.0000 hc         1 BKN       0.046033
     14 H3           4.9020     1.3080    -0.9230 hc         1 BKN       0.046033
     15 H4           3.9330    -1.0080    -0.8670 h1         1 BKN       0.048700
     16 H5           3.9200    -0.9610     0.8980 h1         1 BKN       0.048700
     17 H6           0.3120     1.1730     0.8240 hc         1 BKN       0.068200
     18 H7           0.3070     1.1150    -0.9170 hc         1 BKN       0.068200
     19 H8          -1.0950    -0.9760    -0.8480 hc         1 BKN       0.068700
     20 H9          -1.0850    -0.9220     0.9030 hc         1 BKN       0.068700
     21 H10         -2.1950     1.3430     0.8310 hc         1 BKN       0.058200
     22 H11         -2.2070     1.2870    -0.9040 hc         1 BKN       0.058200
     23 H12         -5.7100     0.3490    -0.0110 hc         1 BKN       0.060367
     24 H13         -4.7510     1.5300     0.9020 hc         1 BKN       0.060367
     25 H14         -4.7260     1.5690    -0.8480 hc         1 BKN       0.060367
@<TRIPOS>BOND
     1     1     2 1   
     2     1    12 1   
     3     1    13 1   
     4     1    14 1   
     5     2     3 1   
     6     2    15 1   
     7     2    16 1   
     8     3     4 1   
     9     4     5 2   
    10     4     6 1   
    11     6     7 1   
    12     6    17 1   
    13     6    18 1   
    14     7     8 1   
    15     7    19 1   
    16     7    20 1   
    17     8     9 1   
    18     8    21 1   
    19     8    22 1   
    20     9    10 2   
    21     9    11 1   
    22    11    23 1   
    23    11    24 1   
    24    11    25 1   
@<TRIPOS>SUBSTRUCTURE
     1 BKN         1 TEMP              0 ****  ****    0 ROOT
