@<TRIPOS>MOLECULE
BKO
   63    66     1     0     0
SMALL
abcg2


@<TRIPOS>ATOM
      1 C10          0.8950    -2.1200     0.1080 c3         1 BKO      -0.149400
      2 C13          5.0800     1.7340     1.2110 c5         1 BKO       0.242000
      3 C15         -0.4380    -1.3980     0.2340 c3         1 BKO      -0.071400
      4 C20         -3.9680    -2.3020     0.1170 ca         1 BKO       0.159100
      5 C21         -5.1240    -1.4950     0.1060 ca         1 BKO      -0.084800
      6 C22         -4.0770    -3.6880     0.0330 ca         1 BKO      -0.204000
      7 C24         -6.3650    -2.1290     0.0300 ca         1 BKO      -0.067000
      8 C26         -5.9250     0.8340    -0.2400 ce         1 BKO      -0.165200
      9 C28         -5.8350     2.2920    -0.1740 ca         1 BKO      -0.047800
     10 C01          4.4720    -0.8790     0.0890 c5         1 BKO       0.042700
     11 C03          4.3350     0.3930    -0.7390 c          1 BKO       0.611100
     12 C04          5.5780    -1.7800    -0.4790 c5         1 BKO      -0.083400
     13 C05          3.5820    -3.0510    -0.4920 c5         1 BKO       0.072000
     14 C06          2.0810    -1.1980     0.2790 c          1 BKO       0.613100
     15 C09          5.0730    -3.1860    -0.1960 c5         1 BKO       0.154300
     16 C12          4.7720     2.7590    -1.0130 c5         1 BKO       0.101000
     17 C16          5.5220     3.8100    -0.2200 c5         1 BKO       0.043600
     18 C18         -1.5810    -2.3870     0.1450 c3         1 BKO       0.164600
     19 C23         -4.9970    -0.0390     0.1770 cf         1 BKO      -0.133200
     20 C25         -5.3280    -4.2840    -0.0540 ca         1 BKO      -0.068000
     21 C27         -6.4770    -3.5080    -0.0550 ca         1 BKO      -0.150000
     22 C29         -4.7240     2.9750     0.3360 ca         1 BKO      -0.100500
     23 C30         -6.9080     3.0500    -0.6520 ca         1 BKO      -0.100500
     24 C31         -4.6940     4.3590     0.3630 ca         1 BKO      -0.111500
     25 C32         -6.8800     4.4360    -0.6230 ca         1 BKO      -0.111500
     26 C33         -5.7710     5.0990    -0.1150 ca         1 BKO      -0.109000
     27 N02          3.2840    -1.7030    -0.0370 n          1 BKO      -0.400800
     28 N07          4.7690     1.5480    -0.2000 n          1 BKO      -0.409800
     29 O08          3.9220     0.3320    -1.8870 o          1 BKO      -0.597100
     30 O11          1.9720    -0.0470     0.6880 o          1 BKO      -0.602100
     31 O14          5.3210    -3.4670     1.1620 oh         1 BKO      -0.652000
     32 O19         -2.7930    -1.6530     0.1980 os         1 BKO      -0.346100
     33 S17          5.0080     3.5230     1.4940 ss         1 BKO      -0.418000
     34 H1           0.9690    -2.9170     0.8570 hc         1 BKO       0.056700
     35 H2           0.9590    -2.6230    -0.8620 hc         1 BKO       0.056700
     36 H3           4.3430     1.2600     1.8570 h2         1 BKO       0.075700
     37 H4          -0.4910    -0.8650     1.1840 hc         1 BKO       0.075200
     38 H5          -0.5360    -0.6570    -0.5620 hc         1 BKO       0.075200
     39 H6          -3.1980    -4.3180     0.0340 ha         1 BKO       0.114000
     40 H7          -7.2650    -1.5280     0.0540 ha         1 BKO       0.116000
     41 H8          -6.8400     0.4610    -0.6900 ha         1 BKO       0.168000
     42 H9           5.6620    -1.6440    -1.5580 hc         1 BKO       0.074700
     43 H10          3.3920    -3.1630    -1.5630 h1         1 BKO       0.053200
     44 H11          3.7500     3.0890    -1.2150 h1         1 BKO       0.070200
     45 H12          6.6020     3.6960    -0.3160 h1         1 BKO       0.079700
     46 H13         -1.5260    -2.9580    -0.7890 h1         1 BKO       0.031200
     47 H14         -1.5290    -3.1030     0.9740 h1         1 BKO       0.031200
     48 H15         -4.0690     0.3390     0.5910 ha         1 BKO       0.189000
     49 H16         -5.3970    -5.3620    -0.1160 ha         1 BKO       0.111000
     50 H17         -7.4540    -3.9700    -0.1110 ha         1 BKO       0.116000
     51 H18         -3.8710     2.4280     0.7150 ha         1 BKO       0.112000
     52 H19         -7.7780     2.5420    -1.0520 ha         1 BKO       0.112000
     53 H20         -3.8240     4.8650     0.7600 ha         1 BKO       0.111000
     54 H21         -7.7260     4.9980    -0.9980 ha         1 BKO       0.111000
     55 H22         -5.7430     6.1810    -0.0910 ha         1 BKO       0.111000
     56 H23          4.9640    -4.3370     1.3650 ho         1 BKO       0.445000
     57 H26          5.2460     4.8190    -0.5190 h1         1 BKO       0.079700
     58 H25          5.2620     2.5720    -1.9690 h1         1 BKO       0.070200
     59 H24          6.0720     1.3510     1.4570 h2         1 BKO       0.075700
     60 H28          6.5510    -1.5750    -0.0340 hc         1 BKO       0.074700
     61 H29          2.9890    -3.8000     0.0350 h1         1 BKO       0.053200
     62 H27          4.6660    -0.6700     1.1420 h1         1 BKO       0.079700
     63 H30          5.5370    -3.9290    -0.8540 h1         1 BKO       0.052700
@<TRIPOS>BOND
     1     1     3 1   
     2     1    14 1   
     3     1    34 1   
     4     1    35 1   
     5     2    28 1   
     6     2    33 1   
     7     2    36 1   
     8     2    59 1   
     9     3    18 1   
    10     3    37 1   
    11     3    38 1   
    12     4     5 ar  
    13     4     6 ar  
    14     4    32 1   
    15     5     7 ar  
    16     5    19 1   
    17     6    20 ar  
    18     6    39 1   
    19     7    21 ar  
    20     7    40 1   
    21     8     9 1   
    22     8    19 2   
    23     8    41 1   
    24     9    22 ar  
    25     9    23 ar  
    26    10    11 1   
    27    10    12 1   
    28    10    27 1   
    29    10    62 1   
    30    11    28 1   
    31    11    29 2   
    32    12    15 1   
    33    12    42 1   
    34    12    60 1   
    35    13    15 1   
    36    13    27 1   
    37    13    43 1   
    38    13    61 1   
    39    14    27 1   
    40    14    30 2   
    41    15    31 1   
    42    15    63 1   
    43    16    17 1   
    44    16    28 1   
    45    16    44 1   
    46    16    58 1   
    47    17    33 1   
    48    17    45 1   
    49    17    57 1   
    50    18    32 1   
    51    18    46 1   
    52    18    47 1   
    53    19    48 1   
    54    20    21 ar  
    55    20    49 1   
    56    21    50 1   
    57    22    24 ar  
    58    22    51 1   
    59    23    25 ar  
    60    23    52 1   
    61    24    26 ar  
    62    24    53 1   
    63    25    26 ar  
    64    25    54 1   
    65    26    55 1   
    66    31    56 1   
@<TRIPOS>SUBSTRUCTURE
     1 BKO         1 TEMP              0 ****  ****    0 ROOT
