@<TRIPOS>MOLECULE
BKO
   63    66     1     0     0
SMALL
No Charge or Current Charge


@<TRIPOS>ATOM
      1 C10          0.7500    -1.9970     0.2210 c3         1 BKO      -0.149400
      2 C13          6.1030     1.7930     0.8530 c5         1 BKO       0.242000
      3 C15         -0.6740    -1.3890     0.1630 c3         1 BKO      -0.071400
      4 C20         -4.2310    -2.4160    -0.3280 ca         1 BKO       0.159100
      5 C21         -5.4330    -1.6580    -0.3450 ca         1 BKO      -0.084800
      6 C22         -4.2770    -3.8160    -0.5220 ca         1 BKO      -0.204000
      7 C24         -6.6570    -2.3320    -0.5570 ca         1 BKO      -0.067000
      8 C26         -6.4290     0.7150    -0.1320 ce         1 BKO      -0.165200
      9 C28         -6.3830     2.1940     0.0710 ca         1 BKO      -0.047800
     10 C01          4.3930    -0.5210     0.3440 c5         1 BKO       0.042700
     11 C03          4.3860     0.6860    -0.6660 c          1 BKO       0.611100
     12 C04          5.5600    -1.4870    -0.0370 c5         1 BKO      -0.083400
     13 C05          3.6060    -2.8660     0.2180 c5         1 BKO       0.072000
     14 C06          1.8940    -0.9900     0.4540 c          1 BKO       0.613100
     15 C09          5.1190    -2.8280     0.5980 c5         1 BKO       0.154300
     16 C12          5.7390     2.6460    -1.4730 c5         1 BKO       0.101000
     17 C16          7.0760     3.2830    -1.0260 c5         1 BKO       0.043600
     18 C18         -1.7680    -2.4440    -0.0880 c3         1 BKO       0.164600
     19 C23         -5.4020    -0.1860    -0.1440 cf         1 BKO      -0.133200
     20 C25         -5.5030    -4.4650    -0.7310 ca         1 BKO      -0.068000
     21 C27         -6.6900    -3.7230    -0.7470 ca         1 BKO      -0.150000
     22 C29         -5.2000     2.8590     0.4640 ca         1 BKO      -0.100500
     23 C30         -7.5550     2.9520    -0.1280 ca         1 BKO      -0.100500
     24 C31         -5.1930     4.2530     0.6470 ca         1 BKO      -0.111500
     25 C32         -7.5470     4.3460     0.0550 ca         1 BKO      -0.111500
     26 C33         -6.3660     4.9980     0.4420 ca         1 BKO      -0.109000
     27 N02          3.2190    -1.4350     0.2620 n          1 BKO      -0.400800
     28 N07          5.4820     1.5640    -0.4820 n          1 BKO      -0.409800
     29 O08          3.6120     0.8270    -1.6080 o          1 BKO      -0.597100
     30 O11          1.6690     0.1680     0.7840 o          1 BKO      -0.602100
     31 O14          5.3270    -2.8220     2.0150 oh         1 BKO      -0.652000
     32 O19         -3.0310    -1.7600    -0.1210 os         1 BKO      -0.346100
     33 S17          6.8490     3.4870     0.7870 ss         1 BKO      -0.418000
     34 H1           0.8190    -2.7620     1.0030 hc         1 BKO       0.056700
     35 H2           0.9810    -2.5790    -0.6790 hc         1 BKO       0.056700
     36 H3           5.3250     1.7540     1.6240 h2         1 BKO       0.075700
     37 H4          -0.8890    -0.8720     1.1060 hc         1 BKO       0.075200
     38 H5          -0.7150    -0.6370    -0.6350 hc         1 BKO       0.075200
     39 H6          -3.3730    -4.4180    -0.5140 ha         1 BKO       0.114000
     40 H7          -7.5980    -1.7900    -0.5760 ha         1 BKO       0.116000
     41 H8          -7.4380     0.3430    -0.2960 ha         1 BKO       0.168000
     42 H9           5.6480    -1.5930    -1.1250 hc         1 BKO       0.074700
     43 H10          3.4620    -3.2710    -0.7920 h1         1 BKO       0.053200
     44 H11          4.9270     3.3850    -1.4550 h1         1 BKO       0.070200
     45 H12          7.9240     2.6140    -1.2240 h1         1 BKO       0.079700
     46 H13         -1.5760    -2.9510    -1.0430 h1         1 BKO       0.031200
     47 H14         -1.7500    -3.1880     0.7190 h1         1 BKO       0.031200
     48 H15         -4.4020     0.2160     0.0110 ha         1 BKO       0.189000
     49 H16         -5.5320    -5.5430    -0.8790 ha         1 BKO       0.111000
     50 H17         -7.6410    -4.2250    -0.9090 ha         1 BKO       0.116000
     51 H18         -4.2810     2.3070     0.6360 ha         1 BKO       0.112000
     52 H19         -8.4780     2.4610    -0.4290 ha         1 BKO       0.112000
     53 H20         -4.2770     4.7560     0.9500 ha         1 BKO       0.111000
     54 H21         -8.4580     4.9200    -0.1040 ha         1 BKO       0.111000
     55 H22         -6.3590     6.0760     0.5850 ha         1 BKO       0.111000
     56 H23          5.0570    -3.7050     2.3500 ho         1 BKO       0.445000
     57 H26          7.2650     4.2480    -1.5150 h1         1 BKO       0.079700
     58 H25          5.8110     2.2500    -2.4950 h1         1 BKO       0.070200
     59 H24          6.8840     1.0350     0.9880 h2         1 BKO       0.075700
     60 H28          6.5350    -1.1500     0.3310 hc         1 BKO       0.074700
     61 H29          3.0290    -3.4810     0.9210 h1         1 BKO       0.053200
     62 H27          4.4900    -0.1530     1.3720 h1         1 BKO       0.079700
     63 H30          5.6580    -3.6740     0.1490 h1         1 BKO       0.052700
@<TRIPOS>BOND
     1     1     3 1   
     2     1    14 1   
     3     1    34 1   
     4     1    35 1   
     5     2    28 1   
     6     2    33 1   
     7     2    36 1   
     8     2    59 1   
     9     3    18 1   
    10     3    37 1   
    11     3    38 1   
    12     4     5 ar  
    13     4     6 ar  
    14     4    32 1   
    15     5     7 ar  
    16     5    19 1   
    17     6    20 ar  
    18     6    39 1   
    19     7    21 ar  
    20     7    40 1   
    21     8     9 1   
    22     8    19 2   
    23     8    41 1   
    24     9    22 ar  
    25     9    23 ar  
    26    10    11 1   
    27    10    12 1   
    28    10    27 1   
    29    10    62 1   
    30    11    28 1   
    31    11    29 2   
    32    12    15 1   
    33    12    42 1   
    34    12    60 1   
    35    13    15 1   
    36    13    27 1   
    37    13    43 1   
    38    13    61 1   
    39    14    27 1   
    40    14    30 2   
    41    15    31 1   
    42    15    63 1   
    43    16    17 1   
    44    16    28 1   
    45    16    44 1   
    46    16    58 1   
    47    17    33 1   
    48    17    45 1   
    49    17    57 1   
    50    18    32 1   
    51    18    46 1   
    52    18    47 1   
    53    19    48 1   
    54    20    21 ar  
    55    20    49 1   
    56    21    50 1   
    57    22    24 ar  
    58    22    51 1   
    59    23    25 ar  
    60    23    52 1   
    61    24    26 ar  
    62    24    53 1   
    63    25    26 ar  
    64    25    54 1   
    65    26    55 1   
    66    31    56 1   
@<TRIPOS>SUBSTRUCTURE
     1 BKO         1 TEMP              0 ****  ****    0 ROOT
