@<TRIPOS>MOLECULE
BKQ
   22    21     1     0     0
SMALL
No Charge or Current Charge


@<TRIPOS>ATOM
      1 CAA          4.0320     0.7120     0.5470 c3         1 BKQ      -0.097100
      2 CAE          3.1520    -0.3340    -0.1560 c3         1 BKQ       0.165600
      3 OAH          1.8160     0.1940    -0.2090 os         1 BKQ      -0.450100
      4 CAJ          0.8450    -0.5720    -0.7990 c          1 BKQ       0.594100
      5 OAD          1.0280    -1.6910    -1.2600 o          1 BKQ      -0.491000
      6 CAG         -0.5250     0.1110    -0.7510 c3         1 BKQ      -0.132400
      7 CAF         -1.3390    -0.3170     0.5040 c3         1 BKQ      -0.181400
      8 CAI         -2.7060     0.3760     0.5580 c          1 BKQ       0.574100
      9 OAC         -2.8360     1.5100     1.0000 o          1 BKQ      -0.520100
     10 CAB         -3.8980    -0.4150     0.0230 c3         1 BKQ      -0.202100
     11 H1           3.6690     0.9030     1.5630 hc         1 BKQ       0.047033
     12 H2           5.0660     0.3550     0.6130 hc         1 BKQ       0.047033
     13 H3           4.0290     1.6560    -0.0100 hc         1 BKQ       0.047033
     14 H4           3.5410    -0.5210    -1.1660 h1         1 BKQ       0.047200
     15 H5           3.1800    -1.2750     0.4100 h1         1 BKQ       0.047200
     16 H6          -0.3760     1.1960    -0.6960 hc         1 BKQ       0.084200
     17 H7          -1.0850    -0.1540    -1.6550 hc         1 BKQ       0.084200
     18 H8          -1.4850    -1.4030     0.4500 hc         1 BKQ       0.075700
     19 H9          -0.7690    -0.0540     1.4040 hc         1 BKQ       0.075700
     20 H10         -3.9830    -1.3510     0.5870 hc         1 BKQ       0.061700
     21 H11         -4.8330     0.1570     0.0510 hc         1 BKQ       0.061700
     22 H12         -3.6670    -0.7730    -0.9870 hc         1 BKQ       0.061700
@<TRIPOS>BOND
     1     1     2 1   
     2     1    11 1   
     3     1    12 1   
     4     1    13 1   
     5     2     3 1   
     6     2    14 1   
     7     2    15 1   
     8     3     4 1   
     9     4     5 2   
    10     4     6 1   
    11     6     7 1   
    12     6    16 1   
    13     6    17 1   
    14     7     8 1   
    15     7    18 1   
    16     7    19 1   
    17     8     9 2   
    18     8    10 1   
    19    10    20 1   
    20    10    21 1   
    21    10    22 1   
@<TRIPOS>SUBSTRUCTURE
     1 BKQ         1 TEMP              0 ****  ****    0 ROOT
