@<TRIPOS>MOLECULE
BKQ
   22    21     1     0     0
SMALL
bcc


@<TRIPOS>ATOM
      1 CAA          4.3160     0.7860    -0.0580 c3         1 BKQ      -0.097100
      2 CAE          3.2740    -0.3040    -0.0190 c3         1 BKQ       0.142400
      3 OAH          1.9880     0.3230     0.0270 os         1 BKQ      -0.426900
      4 CAJ          0.9170    -0.4680     0.0340 c          1 BKQ       0.643100
      5 OAD          0.9740    -1.6680     0.0070 o          1 BKQ      -0.540000
      6 CAG         -0.3530     0.3430     0.0860 c3         1 BKQ      -0.132400
      7 CAF         -1.5950    -0.5230     0.0350 c3         1 BKQ      -0.181400
      8 CAI         -2.8840     0.2560     0.1470 c          1 BKQ       0.574100
      9 OAC         -2.9070     1.4350     0.3970 o          1 BKQ      -0.520100
     10 CAB         -4.1420    -0.5420    -0.0900 c3         1 BKQ      -0.202100
     11 H1           4.2640     1.4240     0.8230 hc         1 BKQ       0.047033
     12 H2           5.3070     0.3340    -0.0830 hc         1 BKQ       0.047033
     13 H3           4.2130     1.4090    -0.9460 hc         1 BKQ       0.047033
     14 H4           3.3450    -0.9440    -0.9010 h1         1 BKQ       0.047200
     15 H5           3.4070    -0.9400     0.8600 h1         1 BKQ       0.047200
     16 H6          -0.3430     0.9510     0.9940 hc         1 BKQ       0.084200
     17 H7          -0.3440     1.0630    -0.7370 hc         1 BKQ       0.084200
     18 H8          -1.6230    -1.1210    -0.8820 hc         1 BKQ       0.075700
     19 H9          -1.5840    -1.2630     0.8420 hc         1 BKQ       0.075700
     20 H10         -4.0790    -1.5370     0.3500 hc         1 BKQ       0.061700
     21 H11         -5.0150    -0.0240     0.3000 hc         1 BKQ       0.061700
     22 H12         -4.2790    -0.6800    -1.1650 hc         1 BKQ       0.061700
@<TRIPOS>BOND
     1     1     2 1   
     2     1    11 1   
     3     1    12 1   
     4     1    13 1   
     5     2     3 1   
     6     2    14 1   
     7     2    15 1   
     8     3     4 1   
     9     4     5 2   
    10     4     6 1   
    11     6     7 1   
    12     6    16 1   
    13     6    17 1   
    14     7     8 1   
    15     7    18 1   
    16     7    19 1   
    17     8     9 2   
    18     8    10 1   
    19    10    20 1   
    20    10    21 1   
    21    10    22 1   
@<TRIPOS>SUBSTRUCTURE
     1 BKQ         1 TEMP              0 ****  ****    0 ROOT
