@<TRIPOS>MOLECULE
BKR
  108   114     1     0     0
SMALL
abcg2


@<TRIPOS>ATOM
      1 O14        -19.1780   108.9060   -18.8300 o          1 BKR      -0.588100
      2 C30        -19.3930   108.3440   -17.7550 c          1 BKR       0.610700
      3 C31        -19.4760   109.1050   -16.4680 ca         1 BKR      -0.149600
      4 C36        -18.4910   110.0480   -16.1750 ca         1 BKR      -0.076000
      5 C35        -18.5490   110.7670   -14.9880 ca         1 BKR      -0.116500
      6 C34        -19.6100   110.5740   -14.1070 ca         1 BKR      -0.092000
      7 C33        -20.6010   109.6450   -14.4030 ca         1 BKR      -0.116500
      8 C32        -20.5360   108.9100   -15.5830 ca         1 BKR      -0.076000
      9 N1         -19.5500   107.0090   -17.6490 ns         1 BKR      -0.500900
     10 C29        -19.6170   106.1390   -18.8110 c3         1 BKR       0.145000
     11 C37        -18.2450   105.7610   -19.3380 ca         1 BKR      -0.104300
     12 C42        -17.1880   105.5300   -18.4610 ca         1 BKR      -0.094500
     13 C41        -15.9440   105.1370   -18.9400 ca         1 BKR      -0.113500
     14 C40        -15.7410   104.9720   -20.3060 ca         1 BKR      -0.101000
     15 C39        -16.7920   105.2030   -21.1890 ca         1 BKR      -0.113500
     16 C38        -18.0370   105.5950   -20.7070 ca         1 BKR      -0.094500
     17 C28        -20.4720   104.9090   -18.4280 c3         1 BKR       0.102300
     18 O13        -21.8080   105.2870   -18.1430 oh         1 BKR      -0.644000
     19 C27        -20.4700   103.9040   -19.5700 c          1 BKR       0.568100
     20 O12        -21.0450   104.1360   -20.6100 o          1 BKR      -0.485000
     21 O11        -19.8060   102.7870   -19.2870 os         1 BKR      -0.441100
     22 C26        -19.6690   101.7910   -20.3580 c6         1 BKR       0.211500
     23 C43        -18.1590   101.5350   -20.5010 c6         1 BKR      -0.110400
     24 C25        -20.4670   100.5620   -20.0000 c2         1 BKR      -0.096400
     25 C44        -21.7360   100.7410   -19.2040 c3         1 BKR      -0.053900
     26 C24        -20.0200    99.3730   -20.4290 c2         1 BKR      -0.117400
     27 C45        -18.8940    99.3010   -21.4620 c6         1 BKR       0.008200
     28 C47        -18.4470    97.8890   -21.8760 c3         1 BKR      -0.086100
     29 C46        -19.3830    99.9500   -22.7800 c3         1 BKR      -0.086100
     30 C1         -17.7190   100.0910   -20.8520 c6         1 BKR       0.196000
     31 O1         -16.7220   100.1630   -21.8810 oh         1 BKR      -0.656000
     32 C21        -20.5920    98.1150   -19.8520 c3         1 BKR       0.123500
     33 O9         -21.4840    97.4600   -20.7380 oh         1 BKR      -0.645000
     34 C20        -19.5140    97.1390   -19.3760 c          1 BKR       0.544100
     35 O8         -19.6430    95.9700   -19.6980 o          1 BKR      -0.539100
     36 C18        -18.4590    97.5120   -18.3200 c6         1 BKR      -0.154000
     37 C19        -17.3750    96.4260   -18.3460 c3         1 BKR      -0.094100
     38 C17        -19.3110    97.4240   -16.9860 c6         1 BKR       0.178300
     39 O7         -20.1070    96.2480   -16.8710 oh         1 BKR      -0.672000
     40 C16        -18.4350    97.4570   -15.7450 c6         1 BKR      -0.083400
     41 C15        -17.4020    98.5630   -15.7590 cy         1 BKR       0.150300
     42 O6         -16.0370    98.0490   -15.7270 oq         1 BKR      -0.452000
     43 C14        -15.6650    98.8340   -16.8790 cy         1 BKR       0.140600
     44 C11        -17.1050    99.3320   -17.0750 cy         1 BKR       0.140000
     45 O4         -17.1150   100.7590   -16.8670 os         1 BKR      -0.448100
     46 C12        -18.2500   101.3620   -16.4710 c          1 BKR       0.600100
     47 C13        -18.0530   102.8410   -16.3840 c3         1 BKR      -0.159100
     48 O5         -19.2670   100.7600   -16.2120 o          1 BKR      -0.485000
     49 C10        -17.8810    98.9820   -18.3750 c6         1 BKR      -0.039700
     50 C2         -17.0370    99.3370   -19.6530 c3         1 BKR       0.153300
     51 O2         -15.9520   100.2350   -19.2950 os         1 BKR      -0.467100
     52 C3         -14.6720    99.8480   -19.4840 c          1 BKR       0.600700
     53 O3         -14.3500    98.7650   -19.9210 o          1 BKR      -0.471000
     54 C4         -13.7200   100.9160   -19.0990 ca         1 BKR      -0.151600
     55 C9         -12.4500   100.9100   -19.6830 ca         1 BKR      -0.055500
     56 C8         -11.5300   101.8930   -19.3480 ca         1 BKR      -0.127000
     57 C7         -11.8710   102.8810   -18.4280 ca         1 BKR      -0.077000
     58 C6         -13.1290   102.8790   -17.8340 ca         1 BKR      -0.127000
     59 C5         -14.0630   101.9120   -18.1820 ca         1 BKR      -0.055500
     60 H1         -17.6690   110.1910   -16.8640 ha         1 BKR       0.125000
     61 H2         -17.7700   111.4810   -14.7520 ha         1 BKR       0.118500
     62 H3         -19.6710   111.1580   -13.1970 ha         1 BKR       0.116000
     63 H4         -21.4330   109.5000   -13.7260 ha         1 BKR       0.118500
     64 H5         -21.3100   108.1890   -15.8150 ha         1 BKR       0.125000
     65 H6         -19.7360   106.6170   -16.7390 hn         1 BKR       0.321500
     66 H7         -20.1630   106.6740   -19.5900 h1         1 BKR       0.092700
     67 H8         -17.3360   105.6690   -17.3990 ha         1 BKR       0.117500
     68 H9         -15.1270   104.9860   -18.2470 ha         1 BKR       0.115000
     69 H10        -14.7670   104.6800   -20.6770 ha         1 BKR       0.117000
     70 H11        -16.6370   105.0950   -22.2550 ha         1 BKR       0.115000
     71 H12        -18.8520   105.7720   -21.3970 ha         1 BKR       0.117500
     72 H13        -20.0610   104.4490   -17.5300 h1         1 BKR       0.091700
     73 H14        -22.3100   105.2760   -18.9710 ho         1 BKR       0.470000
     74 H15        -20.0740   102.2750   -21.2420 h1         1 BKR       0.092700
     75 H16        -17.6850   101.8640   -19.5800 hc         1 BKR       0.072700
     76 H17        -17.7800   102.1740   -21.2950 hc         1 BKR       0.072700
     77 H19        -21.9160   101.7800   -18.9490 hc         1 BKR       0.053367
     78 H20        -22.5900   100.3940   -19.7890 hc         1 BKR       0.053367
     79 H21        -21.7420   100.1770   -18.2700 hc         1 BKR       0.053367
     80 H23        -17.9750    97.3070   -21.0920 hc         1 BKR       0.047700
     81 H24        -19.2960    97.3180   -22.2480 hc         1 BKR       0.047700
     82 H25        -17.7240    97.9810   -22.6840 hc         1 BKR       0.047700
     83 H26        -19.7050   100.9810   -22.6710 hc         1 BKR       0.047700
     84 H27        -18.5870    99.9340   -23.5230 hc         1 BKR       0.047700
     85 H28        -20.2260    99.3710   -23.1600 hc         1 BKR       0.047700
     86 H29        -16.0020   100.7290   -21.5780 ho         1 BKR       0.449000
     87 H30        -21.1270    98.3750   -18.9320 h1         1 BKR       0.074700
     88 H31        -21.2400    96.5180   -20.7210 ho         1 BKR       0.467000
     89 H32        -16.5730    96.6390   -17.6490 hc         1 BKR       0.057367
     90 H33        -17.7960    95.4590   -18.0820 hc         1 BKR       0.057367
     91 H34        -16.9380    96.3320   -19.3400 hc         1 BKR       0.057367
     92 H35        -19.9670    98.2980   -16.9870 h1         1 BKR       0.063700
     93 H36        -20.1850    95.7800   -17.7130 ho         1 BKR       0.461000
     94 H37        -19.0930    97.5520   -14.8800 hc         1 BKR       0.077200
     95 H38        -17.9110    96.5050   -15.6640 hc         1 BKR       0.077200
     96 H39        -17.5390    99.2580   -14.9330 h1         1 BKR       0.077700
     97 H40        -15.2540    98.2080   -17.6660 h1         1 BKR       0.074200
     98 H41        -14.9660    99.6300   -16.6250 h1         1 BKR       0.074200
     99 H42        -18.9730   103.3240   -16.0700 hc         1 BKR       0.073367
    100 H43        -17.2490   103.0690   -15.6830 hc         1 BKR       0.073367
    101 H44        -17.7540   103.2210   -17.3600 hc         1 BKR       0.073367
    102 H45        -18.7360    99.6480   -18.3640 hc         1 BKR       0.084700
    103 H46        -16.5650    98.4500   -20.0580 h1         1 BKR       0.091700
    104 H47        -12.2010   100.1430   -20.4030 ha         1 BKR       0.137000
    105 H48        -10.5490   101.8900   -19.8050 ha         1 BKR       0.120000
    106 H49        -11.1410   103.6280   -18.1420 ha         1 BKR       0.119000
    107 H50        -13.3940   103.6470   -17.1190 ha         1 BKR       0.120000
    108 H51        -15.0580   101.9380   -17.7620 ha         1 BKR       0.137000
@<TRIPOS>BOND
     1     1     2 2   
     2     2     3 1   
     3     2     9 1   
     4     3     4 ar  
     5     3     8 ar  
     6     4     5 ar  
     7     4    60 1   
     8     5     6 ar  
     9     5    61 1   
    10     6     7 ar  
    11     6    62 1   
    12     7     8 ar  
    13     7    63 1   
    14     8    64 1   
    15     9    10 1   
    16     9    65 1   
    17    10    11 1   
    18    10    17 1   
    19    10    66 1   
    20    11    12 ar  
    21    11    16 ar  
    22    12    13 ar  
    23    12    67 1   
    24    13    14 ar  
    25    13    68 1   
    26    14    15 ar  
    27    14    69 1   
    28    15    16 ar  
    29    15    70 1   
    30    16    71 1   
    31    17    18 1   
    32    17    19 1   
    33    17    72 1   
    34    18    73 1   
    35    19    20 2   
    36    19    21 1   
    37    21    22 1   
    38    22    23 1   
    39    22    24 1   
    40    22    74 1   
    41    23    30 1   
    42    23    75 1   
    43    23    76 1   
    44    24    25 1   
    45    24    26 2   
    46    25    77 1   
    47    25    78 1   
    48    25    79 1   
    49    26    27 1   
    50    26    32 1   
    51    27    28 1   
    52    27    29 1   
    53    27    30 1   
    54    28    80 1   
    55    28    81 1   
    56    28    82 1   
    57    29    83 1   
    58    29    84 1   
    59    29    85 1   
    60    30    31 1   
    61    30    50 1   
    62    31    86 1   
    63    32    33 1   
    64    32    34 1   
    65    32    87 1   
    66    33    88 1   
    67    34    35 2   
    68    34    36 1   
    69    36    37 1   
    70    36    38 1   
    71    36    49 1   
    72    37    89 1   
    73    37    90 1   
    74    37    91 1   
    75    38    39 1   
    76    38    40 1   
    77    38    92 1   
    78    39    93 1   
    79    40    41 1   
    80    40    94 1   
    81    40    95 1   
    82    41    42 1   
    83    41    44 1   
    84    41    96 1   
    85    42    43 1   
    86    43    44 1   
    87    43    97 1   
    88    43    98 1   
    89    44    45 1   
    90    44    49 1   
    91    45    46 1   
    92    46    47 1   
    93    46    48 2   
    94    47    99 1   
    95    47   100 1   
    96    47   101 1   
    97    49    50 1   
    98    49   102 1   
    99    50    51 1   
   100    50   103 1   
   101    51    52 1   
   102    52    53 2   
   103    52    54 1   
   104    54    55 ar  
   105    54    59 ar  
   106    55    56 ar  
   107    55   104 1   
   108    56    57 ar  
   109    56   105 1   
   110    57    58 ar  
   111    57   106 1   
   112    58    59 ar  
   113    58   107 1   
   114    59   108 1   
@<TRIPOS>SUBSTRUCTURE
     1 BKR         1 TEMP              0 ****  ****    0 ROOT
