@<TRIPOS>MOLECULE
BKR
  108   114     1     0     0
SMALL
No Charge or Current Charge


@<TRIPOS>ATOM
      1 O14        -19.2940   108.9120   -19.0300 o          1 BKR      -0.588100
      2 C30        -19.7210   108.6560   -17.9120 c          1 BKR       0.610700
      3 C31        -20.0880   109.7430   -16.9200 ca         1 BKR      -0.149600
      4 C36        -19.9470   111.1000   -17.2930 ca         1 BKR      -0.076000
      5 C35        -20.2780   112.1320   -16.3980 ca         1 BKR      -0.116500
      6 C34        -20.7550   111.8250   -15.1140 ca         1 BKR      -0.092000
      7 C33        -20.9000   110.4840   -14.7270 ca         1 BKR      -0.116500
      8 C32        -20.5700   109.4480   -15.6190 ca         1 BKR      -0.076000
      9 N1         -19.8940   107.3560   -17.4930 ns         1 BKR      -0.500900
     10 C29        -19.6180   106.1650   -18.3080 c3         1 BKR       0.145000
     11 C37        -18.1170   105.8710   -18.3930 ca         1 BKR      -0.104300
     12 C42        -17.2620   106.0930   -17.2920 ca         1 BKR      -0.094500
     13 C41        -15.8880   105.8060   -17.3880 ca         1 BKR      -0.113500
     14 C40        -15.3590   105.2870   -18.5810 ca         1 BKR      -0.101000
     15 C39        -16.2030   105.0610   -19.6800 ca         1 BKR      -0.113500
     16 C38        -17.5740   105.3560   -19.5890 ca         1 BKR      -0.094500
     17 C28        -20.4250   104.9220   -17.8210 c3         1 BKR       0.102300
     18 O13        -21.6930   105.3160   -17.2180 oh         1 BKR      -0.644000
     19 C27        -20.6270   103.9330   -18.9990 c          1 BKR       0.568100
     20 O12        -21.4960   104.0780   -19.8500 o          1 BKR      -0.485000
     21 O11        -19.7070   102.9110   -18.9970 os         1 BKR      -0.441100
     22 C26        -19.6520   101.9630   -20.0880 c6         1 BKR       0.211500
     23 C43        -18.1530   101.6400   -20.3820 c6         1 BKR      -0.110400
     24 C25        -20.4880   100.6900   -19.8450 c2         1 BKR      -0.096400
     25 C44        -21.5730   100.8210   -18.7710 c3         1 BKR      -0.053900
     26 C24        -20.1850    99.5410   -20.5100 c2         1 BKR      -0.117400
     27 C45        -19.1440    99.5990   -21.6730 c6         1 BKR       0.008200
     28 C47        -18.8210    98.2460   -22.4230 c3         1 BKR      -0.086100
     29 C46        -19.7560   100.4320   -22.8690 c3         1 BKR      -0.086100
     30 C1         -17.8330   100.2290   -21.0190 c6         1 BKR       0.196000
     31 O1         -16.8820   100.4730   -22.0670 oh         1 BKR      -0.656000
     32 C21        -20.6750    98.1760   -20.0060 c3         1 BKR       0.123500
     33 O9         -21.7160    97.6910   -20.8850 oh         1 BKR      -0.645000
     34 C20        -19.5570    97.1030   -19.7660 c          1 BKR       0.544100
     35 O8         -19.5940    96.0820   -20.4530 o          1 BKR      -0.539100
     36 C18        -18.4220    97.3060   -18.6660 c6         1 BKR      -0.154000
     37 C19        -17.3560    96.1630   -18.9390 c3         1 BKR      -0.094100
     38 C17        -19.1480    97.1110   -17.2900 c6         1 BKR       0.178300
     39 O7         -19.9130    95.9030   -17.2800 oh         1 BKR      -0.672000
     40 C16        -18.1720    97.0960   -16.0970 c6         1 BKR      -0.083400
     41 C15        -17.4800    98.4630   -15.9110 cy         1 BKR       0.150300
     42 O6         -16.0690    98.3590   -15.5050 oq         1 BKR      -0.452000
     43 C14        -15.6400    98.4570   -16.9120 cy         1 BKR       0.140600
     44 C11        -16.9960    99.1810   -17.2430 cy         1 BKR       0.140000
     45 O4         -16.8350   100.6160   -17.1320 os         1 BKR      -0.448100
     46 C12        -17.8910   101.3740   -16.6930 c          1 BKR       0.600100
     47 C13        -17.4520   102.8050   -16.4540 c3         1 BKR      -0.159100
     48 O5         -19.0010   100.9540   -16.4070 o          1 BKR      -0.485000
     49 C10        -17.7710    98.7920   -18.6030 c6         1 BKR      -0.039700
     50 C2         -17.0550    99.2650   -19.9640 c3         1 BKR       0.153300
     51 O2         -15.7890    99.9170   -19.6890 os         1 BKR      -0.467100
     52 C3         -14.6120    99.2120   -19.7390 c          1 BKR       0.600700
     53 O3         -14.5400    98.0240   -20.0190 o          1 BKR      -0.471000
     54 C4         -13.4120   100.0400   -19.3500 ca         1 BKR      -0.151600
     55 C9         -12.1140    99.4940   -19.4640 ca         1 BKR      -0.055500
     56 C8         -10.9870   100.2520   -19.0970 ca         1 BKR      -0.127000
     57 C7         -11.1440   101.5590   -18.6090 ca         1 BKR      -0.077000
     58 C6         -12.4290   102.1100   -18.4880 ca         1 BKR      -0.127000
     59 C5         -13.5590   101.3580   -18.8550 ca         1 BKR      -0.055500
     60 H1         -19.5790   111.3620   -18.2840 ha         1 BKR       0.125000
     61 H2         -20.1640   113.1700   -16.7010 ha         1 BKR       0.118500
     62 H3         -21.0100   112.6240   -14.4220 ha         1 BKR       0.116000
     63 H4         -21.2680   110.2450   -13.7320 ha         1 BKR       0.118500
     64 H5         -20.6960   108.4230   -15.2800 ha         1 BKR       0.125000
     65 H6         -20.3040   107.2150   -16.5800 hn         1 BKR       0.321500
     66 H7         -19.9680   106.3980   -19.3240 h1         1 BKR       0.092700
     67 H8         -17.6560   106.4830   -16.3560 ha         1 BKR       0.117500
     68 H9         -15.2360   105.9800   -16.5350 ha         1 BKR       0.115000
     69 H10        -14.2970   105.0610   -18.6540 ha         1 BKR       0.117000
     70 H11        -15.7940   104.6590   -20.6050 ha         1 BKR       0.115000
     71 H12        -18.2140   105.1780   -20.4500 ha         1 BKR       0.117500
     72 H13        -19.8210   104.4010   -17.0690 h1         1 BKR       0.091700
     73 H14        -22.3050   105.5550   -17.9520 ho         1 BKR       0.470000
     74 H15        -20.0550   102.4820   -20.9640 h1         1 BKR       0.092700
     75 H16        -17.5750   101.7630   -19.4600 hc         1 BKR       0.072700
     76 H17        -17.7810   102.4370   -21.0390 hc         1 BKR       0.072700
     77 H19        -22.2240   101.6770   -18.9780 hc         1 BKR       0.053367
     78 H20        -22.2520    99.9640   -18.7240 hc         1 BKR       0.053367
     79 H21        -21.1490   100.9630   -17.7730 hc         1 BKR       0.053367
     80 H23        -18.1970    97.5500   -21.8640 hc         1 BKR       0.047700
     81 H24        -19.7310    97.7190   -22.7320 hc         1 BKR       0.047700
     82 H25        -18.2490    98.4260   -23.3410 hc         1 BKR       0.047700
     83 H26        -20.0130   101.4650   -22.6500 hc         1 BKR       0.047700
     84 H27        -19.0670   100.4880   -23.7210 hc         1 BKR       0.047700
     85 H28        -20.6770    99.9630   -23.2350 hc         1 BKR       0.047700
     86 H29        -16.0320   100.6260   -21.6020 ho         1 BKR       0.449000
     87 H30        -21.0960    98.2890   -19.0020 h1         1 BKR       0.074700
     88 H31        -21.4500    96.7770   -21.1390 ho         1 BKR       0.467000
     89 H32        -16.5600    96.0900   -18.2030 hc         1 BKR       0.057367
     90 H33        -17.8180    95.1680   -18.9390 hc         1 BKR       0.057367
     91 H34        -16.8740    96.2750   -19.9170 hc         1 BKR       0.057367
     92 H35        -19.8360    97.9580   -17.1370 h1         1 BKR       0.063700
     93 H36        -19.2780    95.1550   -17.2460 ho         1 BKR       0.461000
     94 H37        -18.7340    96.8750   -15.1790 hc         1 BKR       0.077200
     95 H38        -17.4360    96.2880   -16.1820 hc         1 BKR       0.077200
     96 H39        -18.0350    99.0980   -15.2130 h1         1 BKR       0.077700
     97 H40        -15.4580    97.4790   -17.3480 h1         1 BKR       0.074200
     98 H41        -14.7490    99.0860   -17.0130 h1         1 BKR       0.074200
     99 H42        -18.1840   103.3810   -15.8800 hc         1 BKR       0.073367
    100 H43        -16.4610   102.8130   -15.9890 hc         1 BKR       0.073367
    101 H44        -17.2570   103.2570   -17.4300 hc         1 BKR       0.073367
    102 H45        -18.6320    99.4580   -18.5360 hc         1 BKR       0.084700
    103 H46        -16.8480    98.3540   -20.5290 h1         1 BKR       0.091700
    104 H47        -11.9730    98.4820   -19.8390 ha         1 BKR       0.137000
    105 H48         -9.9920    99.8230   -19.1900 ha         1 BKR       0.120000
    106 H49        -10.2710   102.1430   -18.3240 ha         1 BKR       0.119000
    107 H50        -12.5520   103.1200   -18.1060 ha         1 BKR       0.120000
    108 H51        -14.5450   101.8060   -18.7430 ha         1 BKR       0.137000
@<TRIPOS>BOND
     1     1     2 2   
     2     2     3 1   
     3     2     9 1   
     4     3     4 ar  
     5     3     8 ar  
     6     4     5 ar  
     7     4    60 1   
     8     5     6 ar  
     9     5    61 1   
    10     6     7 ar  
    11     6    62 1   
    12     7     8 ar  
    13     7    63 1   
    14     8    64 1   
    15     9    10 1   
    16     9    65 1   
    17    10    11 1   
    18    10    17 1   
    19    10    66 1   
    20    11    12 ar  
    21    11    16 ar  
    22    12    13 ar  
    23    12    67 1   
    24    13    14 ar  
    25    13    68 1   
    26    14    15 ar  
    27    14    69 1   
    28    15    16 ar  
    29    15    70 1   
    30    16    71 1   
    31    17    18 1   
    32    17    19 1   
    33    17    72 1   
    34    18    73 1   
    35    19    20 2   
    36    19    21 1   
    37    21    22 1   
    38    22    23 1   
    39    22    24 1   
    40    22    74 1   
    41    23    30 1   
    42    23    75 1   
    43    23    76 1   
    44    24    25 1   
    45    24    26 2   
    46    25    77 1   
    47    25    78 1   
    48    25    79 1   
    49    26    27 1   
    50    26    32 1   
    51    27    28 1   
    52    27    29 1   
    53    27    30 1   
    54    28    80 1   
    55    28    81 1   
    56    28    82 1   
    57    29    83 1   
    58    29    84 1   
    59    29    85 1   
    60    30    31 1   
    61    30    50 1   
    62    31    86 1   
    63    32    33 1   
    64    32    34 1   
    65    32    87 1   
    66    33    88 1   
    67    34    35 2   
    68    34    36 1   
    69    36    37 1   
    70    36    38 1   
    71    36    49 1   
    72    37    89 1   
    73    37    90 1   
    74    37    91 1   
    75    38    39 1   
    76    38    40 1   
    77    38    92 1   
    78    39    93 1   
    79    40    41 1   
    80    40    94 1   
    81    40    95 1   
    82    41    42 1   
    83    41    44 1   
    84    41    96 1   
    85    42    43 1   
    86    43    44 1   
    87    43    97 1   
    88    43    98 1   
    89    44    45 1   
    90    44    49 1   
    91    45    46 1   
    92    46    47 1   
    93    46    48 2   
    94    47    99 1   
    95    47   100 1   
    96    47   101 1   
    97    49    50 1   
    98    49   102 1   
    99    50    51 1   
   100    50   103 1   
   101    51    52 1   
   102    52    53 2   
   103    52    54 1   
   104    54    55 ar  
   105    54    59 ar  
   106    55    56 ar  
   107    55   104 1   
   108    56    57 ar  
   109    56   105 1   
   110    57    58 ar  
   111    57   106 1   
   112    58    59 ar  
   113    58   107 1   
   114    59   108 1   
@<TRIPOS>SUBSTRUCTURE
     1 BKR         1 TEMP              0 ****  ****    0 ROOT
