@<TRIPOS>MOLECULE
BKS
   35    38     1     0     0
SMALL
bcc


@<TRIPOS>ATOM
      1 C           -5.5870     2.2540    -0.0130 ca         1 BKS      -0.123000
      2 N           -1.9120     0.2450    -0.0370 na         1 BKS       0.030800
      3 O            1.2620    -3.1110    -0.0090 o          1 BKS      -0.611500
      4 CL           6.1120     1.4290     0.0630 cl         1 BKS      -0.117400
      5 C1          -4.5720     2.6410     0.8520 ca         1 BKS      -0.119500
      6 N1          -2.6950    -2.0190     0.0660 nc         1 BKS      -0.619100
      7 C2          -3.3600     1.9660     0.8530 ca         1 BKS      -0.117000
      8 N2          -0.9590    -3.5820     0.0770 ns         1 BKS      -0.495400
      9 C3          -3.1600     0.9110    -0.0290 ca         1 BKS      -0.001200
     10 C4          -4.1670     0.5240    -0.9050 ca         1 BKS      -0.117000
     11 C5          -5.3810     1.1950    -0.8870 ca         1 BKS      -0.119500
     12 C6          -0.6870     0.8690    -0.0520 cc         1 BKS      -0.132300
     13 C7           0.3160    -0.0610    -0.0100 cd         1 BKS      -0.037000
     14 C8          -0.3370    -1.3330     0.0380 cd         1 BKS      -0.252600
     15 C9          -1.7090    -1.0990     0.0200 cc         1 BKS       0.173100
     16 C10         -2.2640    -3.2350     0.0960 cd         1 BKS       0.505800
     17 C11          0.1160    -2.6930     0.0320 c          1 BKS       0.745100
     18 C12          1.7440     0.2660    -0.0100 ca         1 BKS      -0.006000
     19 C13          2.2210     1.3140    -0.7980 ca         1 BKS      -0.101000
     20 C14          3.5580     1.6810    -0.7790 ca         1 BKS      -0.125000
     21 C15          4.4360     0.9840     0.0340 ca         1 BKS       0.030400
     22 C16          3.9930    -0.0650     0.8250 ca         1 BKS      -0.125000
     23 C17          2.6540    -0.4170     0.7990 ca         1 BKS      -0.101000
     24 H           -6.5340     2.7770    -0.0070 ha         1 BKS       0.136000
     25 H1          -4.7230     3.4650     1.5370 ha         1 BKS       0.137500
     26 H2          -2.5780     2.2550     1.5440 ha         1 BKS       0.147500
     27 HN2         -0.7350    -4.5690     0.0850 hn         1 BKS       0.329500
     28 H4          -4.0050    -0.2860    -1.6030 ha         1 BKS       0.147500
     29 H5          -6.1640     0.8930    -1.5690 ha         1 BKS       0.137500
     30 H6          -0.6220     1.9440    -0.0920 h4         1 BKS       0.176000
     31 H10         -2.9670    -4.0560     0.1380 h5         1 BKS       0.049800
     32 H13          1.5440     1.8480    -1.4520 ha         1 BKS       0.140500
     33 H14          3.9080     2.4950    -1.3990 ha         1 BKS       0.146000
     34 H16          4.6820    -0.5990     1.4660 ha         1 BKS       0.146000
     35 H17          2.3160    -1.2280     1.4280 ha         1 BKS       0.140500
@<TRIPOS>BOND
     1     1     5 ar  
     2     1    11 ar  
     3     1    24 1   
     4     2     9 1   
     5     2    12 1   
     6     2    15 1   
     7     3    17 2   
     8     4    21 1   
     9     5     7 ar  
    10     5    25 1   
    11     6    15 1   
    12     6    16 2   
    13     7     9 ar  
    14     7    26 1   
    15     8    16 1   
    16     8    17 1   
    17     8    27 1   
    18     9    10 ar  
    19    10    11 ar  
    20    10    28 1   
    21    11    29 1   
    22    12    13 2   
    23    12    30 1   
    24    13    14 1   
    25    13    18 1   
    26    14    15 2   
    27    14    17 1   
    28    16    31 1   
    29    18    19 ar  
    30    18    23 ar  
    31    19    20 ar  
    32    19    32 1   
    33    20    21 ar  
    34    20    33 1   
    35    21    22 ar  
    36    22    23 ar  
    37    22    34 1   
    38    23    35 1   
@<TRIPOS>SUBSTRUCTURE
     1 BKS         1 TEMP              0 ****  ****    0 ROOT
