@<TRIPOS>MOLECULE
BKS
   35    38     1     0     0
SMALL
No Charge or Current Charge


@<TRIPOS>ATOM
      1 C           -5.6220     2.2980    -0.1080 ca         1 BKS      -0.105000
      2 N           -1.9180     0.2740     0.0450 na         1 BKS       0.132200
      3 O            1.2840    -3.0400    -0.0800 o          1 BKS      -0.536000
      4 Cl           6.1790     1.3200    -0.0800 cl         1 BKS      -0.209000
      5 C1          -4.6190     2.7260     0.7770 ca         1 BKS      -0.101500
      6 N1          -2.7040    -2.1010     0.1610 nc         1 BKS      -0.619100
      7 C2          -3.3880     2.0490     0.8280 ca         1 BKS      -0.099000
      8 N2          -0.8760    -3.6280     0.1020 ns         1 BKS      -0.428400
      9 C3          -3.1510     0.9330    -0.0040 ca         1 BKS      -0.001200
     10 C4          -4.1620     0.5140    -0.8940 ca         1 BKS      -0.099000
     11 C5          -5.3930     1.1930    -0.9450 ca         1 BKS      -0.101500
     12 C6          -0.7030     0.9400    -0.0220 cc         1 BKS      -0.165000
     13 C7           0.2650    -0.0360     0.0900 cd         1 BKS      -0.037000
     14 C8          -0.3980    -1.3160     0.0980 cd         1 BKS      -0.252600
     15 C9          -1.7510    -1.1040     0.1120 cc         1 BKS       0.122400
     16 C10         -2.2110    -3.3390     0.1730 cd         1 BKS       0.505800
     17 C11          0.1180    -2.7030     0.0400 c          1 BKS       0.602600
     18 C12          1.7120     0.2670     0.0380 ca         1 BKS      -0.006000
     19 C13          2.1660     1.4200    -0.6420 ca         1 BKS      -0.083000
     20 C14          3.5350     1.7380    -0.6850 ca         1 BKS      -0.107000
     21 C15          4.4670     0.9200    -0.0320 ca         1 BKS       0.122000
     22 C16          4.0300    -0.2090     0.6760 ca         1 BKS      -0.107000
     23 C17          2.6610    -0.5280     0.7170 ca         1 BKS      -0.083000
     24 H           -6.5740     2.8230    -0.1480 ha         1 BKS       0.118000
     25 H1          -4.7950     3.5830     1.4240 ha         1 BKS       0.119500
     26 H2          -2.6200     2.3870     1.5200 ha         1 BKS       0.129500
     27 HN2         -0.5780    -4.5910     0.0780 hn         1 BKS       0.329500
     28 H4          -3.9940    -0.3340    -1.5540 ha         1 BKS       0.129500
     29 H5          -6.1670     0.8630    -1.6340 ha         1 BKS       0.119500
     30 H6          -0.6310     2.0170    -0.1060 h4         1 BKS       0.158000
     31 H10         -2.8410    -4.2190     0.2160 h5         1 BKS       0.049800
     32 H13          1.4620     2.0640    -1.1620 ha         1 BKS       0.122500
     33 H14          3.8720     2.6200    -1.2250 ha         1 BKS       0.128000
     34 H16          4.7490    -0.8290     1.2060 ha         1 BKS       0.128000
     35 H17          2.3400    -1.3690     1.3230 ha         1 BKS       0.122500
@<TRIPOS>BOND
     1     1     5 ar  
     2     1    11 ar  
     3     1    24 1   
     4     2     9 1   
     5     2    12 1   
     6     2    15 1   
     7     3    17 2   
     8     4    21 1   
     9     5     7 ar  
    10     5    25 1   
    11     6    15 1   
    12     6    16 2   
    13     7     9 ar  
    14     7    26 1   
    15     8    16 1   
    16     8    17 1   
    17     8    27 1   
    18     9    10 ar  
    19    10    11 ar  
    20    10    28 1   
    21    11    29 1   
    22    12    13 2   
    23    12    30 1   
    24    13    14 1   
    25    13    18 1   
    26    14    15 2   
    27    14    17 1   
    28    16    31 1   
    29    18    19 ar  
    30    18    23 ar  
    31    19    20 ar  
    32    19    32 1   
    33    20    21 ar  
    34    20    33 1   
    35    21    22 ar  
    36    22    23 ar  
    37    22    34 1   
    38    23    35 1   
@<TRIPOS>SUBSTRUCTURE
     1 BKS         1 TEMP              0 ****  ****    0 ROOT
