@<TRIPOS>MOLECULE
BKV
   35    38     1     0     0
SMALL
abcg2


@<TRIPOS>ATOM
      1 C            6.0280    -2.7790     0.0200 ca         1 BKV      -0.106000
      2 N            0.3390     0.1820     0.0290 na         1 BKV       0.126200
      3 O            4.5100     2.1660     0.0250 o          1 BKV      -0.532000
      4 BR          -5.6670    -0.6100     0.0080 br         1 BKV      -0.088100
      5 C1           4.9530    -3.0850     0.8440 ca         1 BKV      -0.114000
      6 N1           2.6090     3.4070    -0.0560 ns         1 BKV      -0.429400
      7 C2           3.8250    -2.2770     0.8460 ca         1 BKV      -0.088000
      8 N2           0.4260     2.5760    -0.0550 nc         1 BKV      -0.623100
      9 C3           3.7460    -1.1540     0.0200 ca         1 BKV      -0.014000
     10 C4           4.8320    -0.8580    -0.8060 ca         1 BKV      -0.088000
     11 C5           5.9610    -1.6630    -0.8050 ca         1 BKV      -0.114000
     12 C6           2.5270    -0.3390     0.0080 cc         1 BKV      -0.027000
     13 C7           1.2560    -0.8440     0.0400 cd         1 BKV      -0.170000
     14 C8           1.0140     1.3620    -0.0170 cc         1 BKV       0.123400
     15 C9           2.3770     1.0850    -0.0310 cd         1 BKV      -0.251600
     16 C10          3.2910     2.1890    -0.0180 c          1 BKV       0.602600
     17 C11          1.2670     3.5550    -0.0760 cd         1 BKV       0.506800
     18 C12         -1.0630     0.0160     0.0210 ca         1 BKV       0.015800
     19 C13         -1.6350    -0.9020    -0.8500 ca         1 BKV      -0.101000
     20 C14         -3.0070    -1.0990    -0.8520 ca         1 BKV      -0.075000
     21 C15         -3.7980    -0.3560     0.0120 ca         1 BKV      -0.020900
     22 C16         -3.2370     0.5690     0.8800 ca         1 BKV      -0.075000
     23 C17         -1.8630     0.7490     0.8890 ca         1 BKV      -0.101000
     24 H            6.9120    -3.4040     0.0220 ha         1 BKV       0.111000
     25 H1           4.9940    -3.9490     1.4940 ha         1 BKV       0.111500
     26 HN1          3.1760     4.2450    -0.0550 hn         1 BKV       0.329500
     27 H2           3.0010    -2.5130     1.5090 ha         1 BKV       0.116000
     28 H4           4.7880    -0.0020    -1.4660 ha         1 BKV       0.116000
     29 H5           6.7910    -1.4190    -1.4560 ha         1 BKV       0.111500
     30 H7           0.9260    -1.8700     0.0700 h4         1 BKV       0.158000
     31 H11          0.9090     4.5760    -0.1100 h5         1 BKV       0.050800
     32 H13         -1.0150    -1.4620    -1.5380 ha         1 BKV       0.135000
     33 H14         -3.4420    -1.8180    -1.5320 ha         1 BKV       0.135000
     34 H16         -3.8520     1.1410     1.5600 ha         1 BKV       0.135000
     35 H17         -1.4220     1.4520     1.5810 ha         1 BKV       0.135000
@<TRIPOS>BOND
     1     1     5 ar  
     2     1    11 ar  
     3     1    24 1   
     4     2    13 1   
     5     2    14 1   
     6     2    18 1   
     7     3    16 2   
     8     4    21 1   
     9     5     7 ar  
    10     5    25 1   
    11     6    16 1   
    12     6    17 1   
    13     6    26 1   
    14     7     9 ar  
    15     7    27 1   
    16     8    14 1   
    17     8    17 2   
    18     9    10 ar  
    19     9    12 1   
    20    10    11 ar  
    21    10    28 1   
    22    11    29 1   
    23    12    13 2   
    24    12    15 1   
    25    13    30 1   
    26    14    15 2   
    27    15    16 1   
    28    17    31 1   
    29    18    19 ar  
    30    18    23 ar  
    31    19    20 ar  
    32    19    32 1   
    33    20    21 ar  
    34    20    33 1   
    35    21    22 ar  
    36    22    23 ar  
    37    22    34 1   
    38    23    35 1   
@<TRIPOS>SUBSTRUCTURE
     1 BKV         1 TEMP              0 ****  ****    0 ROOT
