@<TRIPOS>MOLECULE
BKV
   35    38     1     0     0
SMALL
No Charge or Current Charge


@<TRIPOS>ATOM
      1 C            5.9880    -2.6260     0.1000 ca         1 BKV      -0.106000
      2 N            0.3400     0.1950    -0.1750 na         1 BKV       0.126200
      3 O            4.5570     1.8740     0.1670 o          1 BKV      -0.532000
      4 Br          -5.7060    -0.7640     0.1280 br         1 BKV      -0.088100
      5 C1           5.0110    -2.7730     1.0990 ca         1 BKV      -0.114000
      6 N1           2.8330     3.3370     0.0780 ns         1 BKV      -0.429400
      7 C2           3.8320    -2.0090     1.0470 ca         1 BKV      -0.088000
      8 N2           0.5200     2.7200    -0.0860 nc         1 BKV      -0.623100
      9 C3           3.6250    -1.0880     0.0020 ca         1 BKV      -0.014000
     10 C4           4.6040    -0.9530    -1.0020 ca         1 BKV      -0.088000
     11 C5           5.7840    -1.7170    -0.9520 ca         1 BKV      -0.114000
     12 C6           2.3870    -0.3170    -0.0580 cc         1 BKV      -0.027000
     13 C7           1.1580    -0.9250    -0.1220 cd         1 BKV      -0.170000
     14 C8           0.9840     1.4240    -0.0990 cc         1 BKV       0.123400
     15 C9           2.3010     1.0590    -0.0340 cd         1 BKV      -0.251600
     16 C10          3.3570     2.0790     0.0760 c          1 BKV       0.602600
     17 C11          1.4920     3.6350     0.0000 cd         1 BKV       0.506800
     18 C12         -1.0390    -0.0210    -0.1070 ca         1 BKV       0.015800
     19 C13         -1.6770    -0.8510    -1.0530 ca         1 BKV      -0.101000
     20 C14         -3.0640    -1.0710    -0.9830 ca         1 BKV      -0.075000
     21 C15         -3.8200    -0.4640     0.0330 ca         1 BKV      -0.020900
     22 C16         -3.1940     0.3630     0.9800 ca         1 BKV      -0.075000
     23 C17         -1.8070     0.5840     0.9090 ca         1 BKV      -0.101000
     24 H            6.9010    -3.2170     0.1390 ha         1 BKV       0.111000
     25 H1           5.1660    -3.4790     1.9120 ha         1 BKV       0.111500
     26 HN1          3.5030     4.0880     0.1490 hn         1 BKV       0.329500
     27 H2           3.0780    -2.1280     1.8220 ha         1 BKV       0.116000
     28 H4           4.4470    -0.2560    -1.8220 ha         1 BKV       0.116000
     29 H5           6.5370    -1.6050    -1.7290 ha         1 BKV       0.111500
     30 H7           0.8310    -1.9570    -0.1340 h4         1 BKV       0.158000
     31 H11          1.2890     4.6990     0.0200 h5         1 BKV       0.050800
     32 H13         -1.1000    -1.3200    -1.8470 ha         1 BKV       0.135000
     33 H14         -3.5510    -1.7110    -1.7170 ha         1 BKV       0.135000
     34 H16         -3.7800     0.8330     1.7660 ha         1 BKV       0.135000
     35 H17         -1.3280     1.2250     1.6470 ha         1 BKV       0.135000
@<TRIPOS>BOND
     1     1     5 ar  
     2     1    11 ar  
     3     1    24 1   
     4     2    13 1   
     5     2    14 1   
     6     2    18 1   
     7     3    16 2   
     8     4    21 1   
     9     5     7 ar  
    10     5    25 1   
    11     6    16 1   
    12     6    17 1   
    13     6    26 1   
    14     7     9 ar  
    15     7    27 1   
    16     8    14 1   
    17     8    17 2   
    18     9    10 ar  
    19     9    12 1   
    20    10    11 ar  
    21    10    28 1   
    22    11    29 1   
    23    12    13 2   
    24    12    15 1   
    25    13    30 1   
    26    14    15 2   
    27    15    16 1   
    28    17    31 1   
    29    18    19 ar  
    30    18    23 ar  
    31    19    20 ar  
    32    19    32 1   
    33    20    21 ar  
    34    20    33 1   
    35    21    22 ar  
    36    22    23 ar  
    37    22    34 1   
    38    23    35 1   
@<TRIPOS>SUBSTRUCTURE
     1 BKV         1 TEMP              0 ****  ****    0 ROOT
