@<TRIPOS>MOLECULE
BKW
   44    46     1     0     0
SMALL
bcc


@<TRIPOS>ATOM
      1 OP3          3.4940    -2.8300     1.8470 o          1 BKW      -0.816800
      2 CZ           3.8900    -1.6830     1.5700 c          1 BKW       0.955600
      3 OP2          5.0480    -1.3270     1.3000 o          1 BKW      -0.816800
      4 C34          2.8050    -0.5760     1.6390 c3         1 BKW      -0.219100
      5 C29          3.2310     0.7220     1.0320 ca         1 BKW       0.117700
      6 C30          3.8570     1.6670     1.8420 ca         1 BKW      -0.147000
      7 C31          4.2980     2.8840     1.3480 ca         1 BKW      -0.083000
      8 C32          4.1220     3.1980     0.0080 ca         1 BKW      -0.187000
      9 C33          3.5030     2.2840    -0.8270 ca         1 BKW      -0.050000
     10 C28          3.0640     1.0660    -0.3140 ca         1 BKW      -0.263500
     11 S1           2.3150    -0.0570    -1.4710 sy         1 BKW       1.152600
     12 OS1          2.3700     0.5650    -2.7930 o          1 BKW      -0.593300
     13 OS2          2.8910    -1.3880    -1.3120 o          1 BKW      -0.593300
     14 C1           0.6070    -0.1280    -1.0000 ca         1 BKW      -0.245500
     15 C6          -0.1520     1.0350    -1.0460 ca         1 BKW      -0.028000
     16 C5          -1.4950     0.9780    -0.7240 ca         1 BKW      -0.147500
     17 C4          -2.1040    -0.2330    -0.3760 cp         1 BKW       0.004000
     18 C3          -1.3190    -1.3870    -0.3520 ca         1 BKW      -0.147500
     19 C2           0.0310    -1.3410    -0.6600 ca         1 BKW      -0.028000
     20 C7          -3.5380    -0.2840    -0.0400 cp         1 BKW      -0.066000
     21 C12         -4.0250    -1.1760     0.9210 ca         1 BKW      -0.078500
     22 C11         -5.3660    -1.2230     1.2420 ca         1 BKW      -0.195000
     23 C10         -6.2750    -0.3750     0.6040 ca         1 BKW       0.135100
     24 O13         -7.5600    -0.4870     0.9780 os         1 BKW      -0.320900
     25 C14         -8.5190     0.3640     0.3800 c3         1 BKW       0.128700
     26 C9          -5.8080     0.5160    -0.3600 ca         1 BKW      -0.195000
     27 C8          -4.4560     0.5540    -0.6670 ca         1 BKW      -0.078500
     28 H2           1.8730    -0.9520     1.2180 hc         1 BKW       0.038200
     29 H3           2.5920    -0.4020     2.6980 hc         1 BKW       0.038200
     30 H4           3.9960     1.4370     2.8910 ha         1 BKW       0.132000
     31 H5           4.7780     3.5910     2.0120 ha         1 BKW       0.112000
     32 H6           4.4630     4.1450    -0.3870 ha         1 BKW       0.114000
     33 H7           3.3620     2.5240    -1.8720 ha         1 BKW       0.142000
     34 H8           0.2930     1.9860    -1.3100 ha         1 BKW       0.159000
     35 H9          -2.0720     1.8930    -0.7280 ha         1 BKW       0.127500
     36 H10         -1.7630    -2.3430    -0.1100 ha         1 BKW       0.127500
     37 H11          0.6200    -2.2480    -0.6340 ha         1 BKW       0.159000
     38 H12         -3.3440    -1.8320     1.4480 ha         1 BKW       0.137500
     39 H13         -5.7200    -1.9120     2.0000 ha         1 BKW       0.135500
     40 H14         -8.2970     1.4190     0.5610 h1         1 BKW       0.037033
     41 H15         -8.5950     0.2000    -0.6970 h1         1 BKW       0.037033
     42 H16         -9.4740     0.1230     0.8400 h1         1 BKW       0.037033
     43 H17         -6.4790     1.1830    -0.8840 ha         1 BKW       0.135500
     44 H18         -4.1250     1.2450    -1.4330 ha         1 BKW       0.137500
@<TRIPOS>BOND
     1     1     2 1   
     2     2     3 1   
     3     2     4 1   
     4     4     5 1   
     5     4    28 1   
     6     4    29 1   
     7     5     6 ar  
     8     5    10 ar  
     9     6     7 ar  
    10     6    30 1   
    11     7     8 ar  
    12     7    31 1   
    13     8     9 ar  
    14     8    32 1   
    15     9    10 ar  
    16     9    33 1   
    17    10    11 1   
    18    11    12 2   
    19    11    13 2   
    20    11    14 1   
    21    14    15 ar  
    22    14    19 ar  
    23    15    16 ar  
    24    15    34 1   
    25    16    17 ar  
    26    16    35 1   
    27    17    18 ar  
    28    17    20 1   
    29    18    19 ar  
    30    18    36 1   
    31    19    37 1   
    32    20    21 ar  
    33    20    27 ar  
    34    21    22 ar  
    35    21    38 1   
    36    22    23 ar  
    37    22    39 1   
    38    23    24 1   
    39    23    26 ar  
    40    24    25 1   
    41    25    40 1   
    42    25    41 1   
    43    25    42 1   
    44    26    27 ar  
    45    26    43 1   
    46    27    44 1   
@<TRIPOS>SUBSTRUCTURE
     1 BKW         1 TEMP              0 ****  ****    0 ROOT
