@<TRIPOS>MOLECULE
BKW
   44    46     1     0     0
SMALL
No Charge or Current Charge


@<TRIPOS>ATOM
      1 OP3          4.3460    -2.1580     1.5610 o          1 BKW      -0.711500
      2 CZ           3.7280    -1.3520     2.2390 c          1 BKW       0.745000
      3 OP2          4.0210    -1.0780     3.3930 o          1 BKW      -0.711500
      4 C34          2.6020    -0.5520     1.5680 c3         1 BKW      -0.219100
      5 C29          3.1780     0.7070     0.9010 ca         1 BKW       0.117700
      6 C30          3.7350     1.6770     1.7640 ca         1 BKW      -0.129000
      7 C31          4.2800     2.8710     1.2740 ca         1 BKW      -0.065000
      8 C32          4.2680     3.1240    -0.1000 ca         1 BKW      -0.169000
      9 C33          3.7050     2.1910    -0.9810 ca         1 BKW      -0.032000
     10 C28          3.1510     0.9780    -0.5010 ca         1 BKW      -0.263500
     11 S1           2.3990    -0.1400    -1.7250 sy         1 BKW       1.011000
     12 OS1          2.4520     0.5280    -3.0340 o          1 BKW      -0.522500
     13 OS2          2.9750    -1.4820    -1.5600 o          1 BKW      -0.522500
     14 C1           0.6600    -0.2130    -1.2410 ca         1 BKW      -0.245500
     15 C6          -0.0670     0.9840    -1.0990 ca         1 BKW      -0.010000
     16 C5          -1.4190     0.9440    -0.7170 ca         1 BKW      -0.129500
     17 C4          -2.0780    -0.2860    -0.4690 cp         1 BKW       0.004000
     18 C3          -1.3280    -1.4780    -0.6220 ca         1 BKW      -0.129500
     19 C2           0.0240    -1.4470    -1.0050 ca         1 BKW      -0.010000
     20 C7          -3.5190    -0.3240    -0.0590 cp         1 BKW      -0.066000
     21 C12         -3.9960    -1.3020     0.8490 ca         1 BKW      -0.060500
     22 C11         -5.3480    -1.3360     1.2330 ca         1 BKW      -0.177000
     23 C10         -6.2570    -0.3990     0.7210 ca         1 BKW       0.135100
     24 O13         -7.5710    -0.4820     1.1340 os         1 BKW      -0.344100
     25 C14         -8.5800     0.4320     0.6680 c3         1 BKW       0.151900
     26 C9          -5.8030     0.5830    -0.1840 ca         1 BKW      -0.177000
     27 C8          -4.4500     0.6170    -0.5670 ca         1 BKW      -0.060500
     28 H2           2.1220    -1.1860     0.8240 hc         1 BKW       0.038200
     29 H3           1.8940    -0.2030     2.3290 hc         1 BKW       0.038200
     30 H4           3.7440     1.5050     2.8370 ha         1 BKW       0.114000
     31 H5           4.7070     3.5980     1.9610 ha         1 BKW       0.094000
     32 H6           4.6880     4.0500    -0.4860 ha         1 BKW       0.096000
     33 H7           3.7020     2.4260    -2.0430 ha         1 BKW       0.124000
     34 H8           0.4120     1.9450    -1.2770 ha         1 BKW       0.141000
     35 H9          -1.9550     1.8810    -0.5970 ha         1 BKW       0.109500
     36 H10         -1.8010    -2.4420    -0.4560 ha         1 BKW       0.109500
     37 H11          0.5680    -2.3840    -1.1160 ha         1 BKW       0.141000
     38 H12         -3.3110    -2.0330     1.2720 ha         1 BKW       0.119500
     39 H13         -5.6920    -2.0930     1.9330 ha         1 BKW       0.117500
     40 H14         -8.3270     1.4650     0.9420 h1         1 BKW       0.037033
     41 H15         -8.6870     0.3720    -0.4220 h1         1 BKW       0.037033
     42 H16         -9.5500     0.1890     1.1190 h1         1 BKW       0.037033
     43 H17         -6.4800     1.3220    -0.6020 ha         1 BKW       0.117500
     44 H18         -4.1250     1.3740    -1.2760 ha         1 BKW       0.119500
@<TRIPOS>BOND
     1     1     2 1   
     2     2     3 1   
     3     2     4 1   
     4     4     5 1   
     5     4    28 1   
     6     4    29 1   
     7     5     6 ar  
     8     5    10 ar  
     9     6     7 ar  
    10     6    30 1   
    11     7     8 ar  
    12     7    31 1   
    13     8     9 ar  
    14     8    32 1   
    15     9    10 ar  
    16     9    33 1   
    17    10    11 1   
    18    11    12 2   
    19    11    13 2   
    20    11    14 1   
    21    14    15 ar  
    22    14    19 ar  
    23    15    16 ar  
    24    15    34 1   
    25    16    17 ar  
    26    16    35 1   
    27    17    18 ar  
    28    17    20 1   
    29    18    19 ar  
    30    18    36 1   
    31    19    37 1   
    32    20    21 ar  
    33    20    27 ar  
    34    21    22 ar  
    35    21    38 1   
    36    22    23 ar  
    37    22    39 1   
    38    23    24 1   
    39    23    26 ar  
    40    24    25 1   
    41    25    40 1   
    42    25    41 1   
    43    25    42 1   
    44    26    27 ar  
    45    26    43 1   
    46    27    44 1   
@<TRIPOS>SUBSTRUCTURE
     1 BKW         1 TEMP              0 ****  ****    0 ROOT
