@<TRIPOS>MOLECULE
BKX
  102   105     1     0     0
SMALL
No Charge or Current Charge


@<TRIPOS>ATOM
      1 C10         26.5820   -26.9260   -46.0730 ca         1 BKX      -0.058300
      2 C15         25.4330   -27.0580   -43.4980 ca         1 BKX       0.072000
      3 C17         24.9820   -26.0870   -44.4220 ca         1 BKX      -0.038000
      4 C21         24.1670   -24.1220   -43.0400 c          1 BKX       0.624100
      5 C24         26.4380   -23.0150   -43.4590 c3         1 BKX       0.195300
      6 C28         24.9380   -20.3820   -45.7710 c3         1 BKX       0.063700
      7 C01         29.3550   -19.5570   -49.6710 c3         1 BKX       0.149900
      8 O02         30.4390   -20.4660   -49.3800 os         1 BKX      -0.452000
      9 C03         30.3370   -21.3450   -48.2210 c3         1 BKX       0.188500
     10 C04         29.3090   -22.4400   -48.4800 c2         1 BKX      -0.261200
     11 C05         29.4400   -23.7110   -48.0420 ce         1 BKX      -0.144000
     12 C06         28.3610   -24.7030   -48.0870 ce         1 BKX      -0.185000
     13 C07         28.4100   -25.9290   -47.5110 c2         1 BKX      -0.090400
     14 C08         29.6170   -26.4940   -46.7710 c3         1 BKX      -0.061900
     15 C09         27.2070   -26.8570   -47.4650 c3         1 BKX      -0.001900
     16 C11         26.9990   -27.9140   -45.1610 ca         1 BKX      -0.127000
     17 C12         26.4370   -27.9790   -43.8670 ca         1 BKX       0.116100
     18 O13         26.8340   -28.9320   -42.9440 os         1 BKX      -0.348100
     19 C14         27.8560   -29.9050   -43.2270 c3         1 BKX       0.148900
     20 Cl1         24.6750   -27.1900   -41.9020 cl         1 BKX      -0.169000
     21 C18         25.5910   -26.0030   -45.6890 ca         1 BKX      -0.109000
     22 N19         24.0020   -25.1010   -44.0550 n          1 BKX      -0.233400
     23 O22         23.2170   -23.4430   -42.6640 o          1 BKX      -0.583100
     24 C23         25.5690   -23.8350   -42.4780 c3         1 BKX      -0.155400
     25 O25         25.5790   -22.0320   -44.0720 os         1 BKX      -0.418100
     26 O27         26.9710   -21.7380   -45.8710 o          1 BKX      -0.524000
     27 C29         23.7820   -20.0630   -44.7910 c3         1 BKX      -0.095100
     28 N30         24.4240   -20.6130   -47.1580 n          1 BKX      -0.408800
     29 C31         24.4670   -19.4650   -48.0970 c3         1 BKX       0.089300
     30 C32         23.9760   -21.8950   -47.5720 c          1 BKX       0.606100
     31 O33         23.9140   -22.8170   -46.7730 o          1 BKX      -0.598100
     32 C34         23.5230   -22.0840   -49.0320 c3         1 BKX      -0.141400
     33 C35         23.1100   -23.5170   -49.4280 c3         1 BKX       0.070600
     34 S36         24.5760   -24.6370   -49.5020 ss         1 BKX      -0.247000
     35 S37         23.7580   -26.4880   -50.0380 ss         1 BKX      -0.219000
     36 C38         23.2850   -27.2460   -48.4220 c3         1 BKX       0.025900
     37 C39         27.6260   -22.3040   -42.7540 cx         1 BKX       0.075000
     38 C40         27.2750   -20.9350   -42.1540 c3         1 BKX      -0.076100
     39 O41         28.4310   -23.1170   -41.8570 op         1 BKX      -0.420000
     40 C42         29.0360   -22.7420   -43.1110 cx         1 BKX       0.099300
     41 C43         30.2780   -21.8150   -43.1200 c3         1 BKX      -0.042700
     42 C44         30.5760   -21.0850   -41.7810 c3         1 BKX      -0.081100
     43 C45         30.2530   -20.8540   -44.3520 c6         1 BKX       0.198300
     44 C46         30.2130   -21.6050   -45.6820 c6         1 BKX      -0.167400
     45 C47         30.1130   -20.5950   -46.8310 c6         1 BKX       0.346400
     46 O48         28.8250   -19.9980   -46.7760 oh         1 BKX      -0.753000
     47 N49         31.0640   -19.5270   -46.6090 ns         1 BKX      -0.534900
     48 C50         31.7710   -19.2620   -45.4570 c          1 BKX       0.722100
     49 O51         32.6560   -18.4260   -45.4270 o          1 BKX      -0.549000
     50 O52         31.4310   -20.0280   -44.3630 os         1 BKX      -0.444100
     51 H202        22.4020   -24.1350   -45.0640 h1         1 BKX       0.044367
     52 H201        22.7950   -25.7650   -45.6730 h1         1 BKX       0.044367
     53 H203        21.9440   -25.5790   -44.1150 h1         1 BKX       0.044367
     54 H241        26.8200   -23.7060   -44.2250 h1         1 BKX       0.080700
     55 H281        25.5530   -19.4730   -45.7990 h1         1 BKX       0.075700
     56 H012        29.5100   -19.0950   -50.6540 h1         1 BKX       0.033033
     57 H013        28.3860   -20.0680   -49.6930 h1         1 BKX       0.033033
     58 H011        29.3100   -18.7440   -48.9350 h1         1 BKX       0.033033
     59 H031        31.3090   -21.8470   -48.1190 h1         1 BKX       0.080700
     60 H041        28.3830   -22.1130   -48.9490 ha         1 BKX       0.184000
     61 H051        30.3610   -24.0020   -47.5360 ha         1 BKX       0.169000
     62 H061        27.4380   -24.3770   -48.5690 ha         1 BKX       0.186000
     63 H081        29.6210   -27.5900   -46.7720 hc         1 BKX       0.044033
     64 H082        30.5630   -26.1860   -47.2310 hc         1 BKX       0.044033
     65 H083        29.6250   -26.1630   -45.7260 hc         1 BKX       0.044033
     66 H091        26.4530   -26.5260   -48.1870 hc         1 BKX       0.062200
     67 H092        27.4910   -27.8610   -47.8020 hc         1 BKX       0.062200
     68 H111        27.7640   -28.6180   -45.4720 ha         1 BKX       0.128000
     69 H141        28.0140   -30.5540   -42.3560 h1         1 BKX       0.040033
     70 H142        27.5680   -30.5390   -44.0750 h1         1 BKX       0.040033
     71 H143        28.8090   -29.4130   -43.4610 h1         1 BKX       0.040033
     72 H181        25.2820   -25.2260   -46.3850 ha         1 BKX       0.154000
     73 H232        26.1160   -24.7680   -42.3210 hc         1 BKX       0.088700
     74 H231        25.4690   -23.2940   -41.5320 hc         1 BKX       0.088700
     75 H293        24.1710   -19.7700   -43.8080 hc         1 BKX       0.057367
     76 H291        23.1730   -19.2350   -45.1730 hc         1 BKX       0.057367
     77 H292        23.1300   -20.9350   -44.6600 hc         1 BKX       0.057367
     78 H312        25.2160   -19.6510   -48.8780 h1         1 BKX       0.047033
     79 H313        23.4840   -19.3190   -48.5600 h1         1 BKX       0.047033
     80 H311        24.7340   -18.5410   -47.5680 h1         1 BKX       0.047033
     81 H341        24.2930   -21.6840   -49.7010 hc         1 BKX       0.072700
     82 H342        22.6980   -21.3860   -49.2070 hc         1 BKX       0.072700
     83 H351        22.3820   -23.9150   -48.7090 h1         1 BKX       0.075700
     84 H352        22.6390   -23.5010   -50.4200 h1         1 BKX       0.075700
     85 H382        22.8270   -28.2280   -48.5950 h1         1 BKX       0.070367
     86 H381        24.1740   -27.3720   -47.7930 h1         1 BKX       0.070367
     87 H383        22.5650   -26.5980   -47.9080 h1         1 BKX       0.070367
     88 H401        27.8130   -20.7540   -41.2170 hc         1 BKX       0.054033
     89 H402        27.5080   -20.1240   -42.8520 hc         1 BKX       0.054033
     90 H403        26.2090   -20.8610   -41.9050 hc         1 BKX       0.054033
     91 H421        29.1270   -23.5680   -43.8170 h1         1 BKX       0.082700
     92 H431        31.1330   -22.4860   -43.2650 hc         1 BKX       0.067700
     93 H443        30.4590   -21.7570   -40.9230 hc         1 BKX       0.048367
     94 H442        31.6100   -20.7220   -41.7710 hc         1 BKX       0.048367
     95 H441        29.9290   -20.2130   -41.6430 hc         1 BKX       0.048367
     96 H451        29.3740   -20.1990   -44.2640 h1         1 BKX       0.062700
     97 H462        29.3860   -22.3200   -45.7170 hc         1 BKX       0.079700
     98 H461        31.1310   -22.2000   -45.7840 hc         1 BKX       0.079700
     99 H481        28.1950   -20.7410   -46.5860 ho         1 BKX       0.538000
    100 H491        31.3080   -18.9590   -47.4050 hn         1 BKX       0.348500
    101 C20         22.7090   -25.1470   -44.7710 c3         1 BKX       0.098300
    102 C26         25.9450   -21.4580   -45.2640 c          1 BKX       0.616100
@<TRIPOS>BOND
     1     1    15 1   
     2     1    16 ar  
     3     1    21 ar  
     4     2     3 ar  
     5     2    17 ar  
     6     2    20 1   
     7     3    21 ar  
     8     3    22 1   
     9     4    22 1   
    10     4    23 2   
    11     4    24 1   
    12     5    24 1   
    13     5    25 1   
    14     5    37 1   
    15     5    54 1   
    16     6    27 1   
    17     6    28 1   
    18     6    55 1   
    19     6   102 1   
    20     7     8 1   
    21     7    56 1   
    22     7    57 1   
    23     7    58 1   
    24     8     9 1   
    25     9    10 1   
    26     9    45 1   
    27     9    59 1   
    28    10    11 2   
    29    10    60 1   
    30    11    12 1   
    31    11    61 1   
    32    12    13 2   
    33    12    62 1   
    34    13    14 1   
    35    13    15 1   
    36    14    63 1   
    37    14    64 1   
    38    14    65 1   
    39    15    66 1   
    40    15    67 1   
    41    16    17 ar  
    42    16    68 1   
    43    17    18 1   
    44    18    19 1   
    45    19    69 1   
    46    19    70 1   
    47    19    71 1   
    48    21    72 1   
    49    22   101 1   
    50    24    73 1   
    51    24    74 1   
    52    25   102 1   
    53    26   102 2   
    54    27    75 1   
    55    27    76 1   
    56    27    77 1   
    57    28    29 1   
    58    28    30 1   
    59    29    78 1   
    60    29    79 1   
    61    29    80 1   
    62    30    31 2   
    63    30    32 1   
    64    32    33 1   
    65    32    81 1   
    66    32    82 1   
    67    33    34 1   
    68    33    83 1   
    69    33    84 1   
    70    34    35 1   
    71    35    36 1   
    72    36    85 1   
    73    36    86 1   
    74    36    87 1   
    75    37    38 1   
    76    37    39 1   
    77    37    40 1   
    78    38    88 1   
    79    38    89 1   
    80    38    90 1   
    81    39    40 1   
    82    40    41 1   
    83    40    91 1   
    84    41    42 1   
    85    41    43 1   
    86    41    92 1   
    87    42    93 1   
    88    42    94 1   
    89    42    95 1   
    90    43    44 1   
    91    43    50 1   
    92    43    96 1   
    93    44    45 1   
    94    44    97 1   
    95    44    98 1   
    96    45    46 1   
    97    45    47 1   
    98    46    99 1   
    99    47    48 1   
   100    47   100 1   
   101    48    49 2   
   102    48    50 1   
   103    51   101 1   
   104    52   101 1   
   105    53   101 1   
@<TRIPOS>SUBSTRUCTURE
     1 BKX         1 TEMP              0 ****  ****    0 ROOT
