@<TRIPOS>MOLECULE
BKX
  102   105     1     0     0
SMALL
abcg2


@<TRIPOS>ATOM
      1 C10         26.8200   -26.8530   -46.0380 ca         1 BKX      -0.058300
      2 C15         25.7130   -27.1010   -43.4910 ca         1 BKX       0.072000
      3 C17         25.3380   -26.0330   -44.3060 ca         1 BKX      -0.038000
      4 C21         24.4220   -24.2760   -42.8670 c          1 BKX       0.624100
      5 C24         26.5870   -23.0990   -43.4030 c3         1 BKX       0.195300
      6 C28         24.8950   -20.6590   -45.6450 c3         1 BKX       0.063700
      7 C01         29.2630   -19.9470   -50.0580 c3         1 BKX       0.149900
      8 O02         30.3930   -20.2810   -49.2810 os         1 BKX      -0.452000
      9 C03         30.2400   -21.2060   -48.2280 c3         1 BKX       0.188500
     10 C04         29.2300   -22.2920   -48.4400 c2         1 BKX      -0.261200
     11 C05         29.4770   -23.5610   -48.0980 ce         1 BKX      -0.144000
     12 C06         28.4550   -24.5880   -48.0440 ce         1 BKX      -0.185000
     13 C07         28.5790   -25.8000   -47.4820 c2         1 BKX      -0.090400
     14 C08         29.8260   -26.3370   -46.8530 c3         1 BKX      -0.061900
     15 C09         27.3900   -26.7280   -47.4310 c3         1 BKX      -0.001900
     16 C11         27.1970   -27.8950   -45.2010 ca         1 BKX      -0.127000
     17 C12         26.6670   -28.0190   -43.9230 ca         1 BKX       0.116100
     18 O13         27.0580   -29.0210   -43.1020 os         1 BKX      -0.348100
     19 C14         26.3930   -30.2610   -43.3240 c3         1 BKX       0.148900
     20 CL1         24.9900   -27.3110   -41.9410 cl         1 BKX      -0.169000
     21 C18         25.9010   -25.9190   -45.5710 ca         1 BKX      -0.109000
     22 N19         24.3090   -25.1480   -43.9050 n          1 BKX      -0.233400
     23 O22         23.4390   -23.7400   -42.3880 o          1 BKX      -0.583100
     24 C23         25.8130   -23.9210   -42.3750 c3         1 BKX      -0.155400
     25 O25         25.6430   -22.2090   -44.0160 os         1 BKX      -0.418100
     26 O27         26.8460   -22.0340   -45.8850 o          1 BKX      -0.524000
     27 C29         23.6110   -20.5630   -44.8300 c3         1 BKX      -0.095100
     28 N30         24.6580   -20.7530   -47.0740 n          1 BKX      -0.408800
     29 C31         24.8840   -19.5480   -47.8460 c3         1 BKX       0.089300
     30 C32         24.2190   -21.9310   -47.5620 c          1 BKX       0.606100
     31 O33         24.0720   -22.8960   -46.8220 o          1 BKX      -0.598100
     32 C34         23.8990   -22.0100   -49.0420 c3         1 BKX      -0.141400
     33 C35         23.4000   -23.3740   -49.4810 c3         1 BKX       0.070600
     34 S36         24.7860   -24.5590   -49.5440 ss         1 BKX      -0.247000
     35 S37         23.8400   -26.3270   -49.9640 ss         1 BKX      -0.219000
     36 C38         23.2960   -26.8870   -48.3290 c3         1 BKX       0.025900
     37 C39         27.6920   -22.2730   -42.7420 cx         1 BKX       0.075000
     38 C40         27.2160   -20.9870   -42.1090 c3         1 BKX      -0.076100
     39 O41         28.5850   -23.0700   -41.9780 op         1 BKX      -0.420000
     40 C42         29.0710   -22.5130   -43.1860 cx         1 BKX       0.099300
     41 C43         30.2390   -21.5350   -43.1870 c3         1 BKX      -0.042700
     42 C44         30.4540   -20.7270   -41.9110 c3         1 BKX      -0.081100
     43 C45         30.0750   -20.6470   -44.4230 c6         1 BKX       0.198300
     44 C46         30.0830   -21.4260   -45.7170 c6         1 BKX      -0.167400
     45 C47         29.9350   -20.4720   -46.8900 c6         1 BKX       0.346400
     46 O48         28.6560   -19.8810   -46.9050 oh         1 BKX      -0.753000
     47 N49         30.8920   -19.4180   -46.7140 ns         1 BKX      -0.534900
     48 C50         31.4910   -19.0540   -45.5570 c          1 BKX       0.722100
     49 O51         32.3290   -18.1810   -45.4920 o          1 BKX      -0.549000
     50 O52         31.1550   -19.7040   -44.4390 os         1 BKX      -0.444100
     51 H202        22.4490   -24.4820   -44.6190 h1         1 BKX       0.044367
     52 H201        23.0780   -25.9380   -45.3830 h1         1 BKX       0.044367
     53 H203        22.3880   -26.0300   -43.7570 h1         1 BKX       0.044367
     54 H241        27.0090   -23.7620   -44.1620 h1         1 BKX       0.080700
     55 H281        25.4490   -19.7260   -45.4920 h1         1 BKX       0.075700
     56 H012        29.5770   -19.1520   -50.7340 h1         1 BKX       0.033033
     57 H013        28.9170   -20.7870   -50.6670 h1         1 BKX       0.033033
     58 H011        28.4230   -19.5790   -49.4670 h1         1 BKX       0.033033
     59 H031        31.2260   -21.6670   -48.1020 h1         1 BKX       0.080700
     60 H041        28.2260   -22.0140   -48.7490 ha         1 BKX       0.184000
     61 H051        30.4800   -23.8200   -47.7730 ha         1 BKX       0.169000
     62 H061        27.4860   -24.3100   -48.4510 ha         1 BKX       0.186000
     63 H081        30.0970   -27.2920   -47.3100 hc         1 BKX       0.044033
     64 H082        30.6810   -25.6710   -46.9380 hc         1 BKX       0.044033
     65 H083        29.6690   -26.5360   -45.7900 hc         1 BKX       0.044033
     66 H091        26.6100   -26.3690   -48.1050 hc         1 BKX       0.062200
     67 H092        27.6890   -27.7190   -47.7840 hc         1 BKX       0.062200
     68 H111        27.9150   -28.6340   -45.5400 ha         1 BKX       0.128000
     69 H141        26.8030   -30.9730   -42.6110 h1         1 BKX       0.040033
     70 H142        25.3170   -30.1720   -43.1590 h1         1 BKX       0.040033
     71 H143        26.5670   -30.6330   -44.3360 h1         1 BKX       0.040033
     72 H181        25.5880   -25.0960   -46.2040 ha         1 BKX       0.154000
     73 H232        26.4060   -24.8010   -42.1280 hc         1 BKX       0.088700
     74 H231        25.6760   -23.3610   -41.4500 hc         1 BKX       0.088700
     75 H293        23.8250   -20.3250   -43.7890 hc         1 BKX       0.057367
     76 H291        23.0040   -19.7520   -45.2310 hc         1 BKX       0.057367
     77 H292        23.0260   -21.4790   -44.8630 hc         1 BKX       0.057367
     78 H312        25.9450   -19.2950   -47.8660 h1         1 BKX       0.047033
     79 H313        24.5440   -19.6590   -48.8700 h1         1 BKX       0.047033
     80 H311        24.3380   -18.7120   -47.4070 h1         1 BKX       0.047033
     81 H341        24.7660   -21.7070   -49.6360 hc         1 BKX       0.072700
     82 H342        23.1180   -21.2790   -49.2720 hc         1 BKX       0.072700
     83 H351        22.6360   -23.7520   -48.8040 h1         1 BKX       0.075700
     84 H352        22.9730   -23.3010   -50.4800 h1         1 BKX       0.075700
     85 H382        22.7680   -27.8280   -48.4820 h1         1 BKX       0.070367
     86 H381        24.1460   -27.0580   -47.6720 h1         1 BKX       0.070367
     87 H383        22.6130   -26.1700   -47.8780 h1         1 BKX       0.070367
     88 H401        27.9060   -20.6460   -41.3440 hc         1 BKX       0.054033
     89 H402        27.1130   -20.1900   -42.8460 hc         1 BKX       0.054033
     90 H403        26.2450   -21.1200   -41.6300 hc         1 BKX       0.054033
     91 H421        29.1770   -23.2640   -43.9690 h1         1 BKX       0.082700
     92 H431        31.1320   -22.1520   -43.3390 hc         1 BKX       0.067700
     93 H443        30.3390   -21.3520   -41.0270 hc         1 BKX       0.048367
     94 H442        31.4640   -20.3220   -41.8920 hc         1 BKX       0.048367
     95 H441        29.7660   -19.8870   -41.8260 hc         1 BKX       0.048367
     96 H451        29.1400   -20.0820   -44.3280 h1         1 BKX       0.062700
     97 H462        29.2670   -22.1420   -45.7350 hc         1 BKX       0.079700
     98 H461        31.0120   -21.9980   -45.7980 hc         1 BKX       0.079700
     99 H481        27.9860   -20.5720   -46.7990 ho         1 BKX       0.538000
    100 H491        31.1560   -18.8810   -47.5280 hn         1 BKX       0.348500
    101 C20         22.9790   -25.4140   -44.4370 c3         1 BKX       0.098300
    102 C26         25.8850   -21.7310   -45.2210 c          1 BKX       0.616100
@<TRIPOS>BOND
     1     1    15 1   
     2     1    16 ar  
     3     1    21 ar  
     4     2     3 ar  
     5     2    17 ar  
     6     2    20 1   
     7     3    21 ar  
     8     3    22 1   
     9     4    22 1   
    10     4    23 2   
    11     4    24 1   
    12     5    24 1   
    13     5    25 1   
    14     5    37 1   
    15     5    54 1   
    16     6    27 1   
    17     6    28 1   
    18     6    55 1   
    19     6   102 1   
    20     7     8 1   
    21     7    56 1   
    22     7    57 1   
    23     7    58 1   
    24     8     9 1   
    25     9    10 1   
    26     9    45 1   
    27     9    59 1   
    28    10    11 2   
    29    10    60 1   
    30    11    12 1   
    31    11    61 1   
    32    12    13 2   
    33    12    62 1   
    34    13    14 1   
    35    13    15 1   
    36    14    63 1   
    37    14    64 1   
    38    14    65 1   
    39    15    66 1   
    40    15    67 1   
    41    16    17 ar  
    42    16    68 1   
    43    17    18 1   
    44    18    19 1   
    45    19    69 1   
    46    19    70 1   
    47    19    71 1   
    48    21    72 1   
    49    22   101 1   
    50    24    73 1   
    51    24    74 1   
    52    25   102 1   
    53    26   102 2   
    54    27    75 1   
    55    27    76 1   
    56    27    77 1   
    57    28    29 1   
    58    28    30 1   
    59    29    78 1   
    60    29    79 1   
    61    29    80 1   
    62    30    31 2   
    63    30    32 1   
    64    32    33 1   
    65    32    81 1   
    66    32    82 1   
    67    33    34 1   
    68    33    83 1   
    69    33    84 1   
    70    34    35 1   
    71    35    36 1   
    72    36    85 1   
    73    36    86 1   
    74    36    87 1   
    75    37    38 1   
    76    37    39 1   
    77    37    40 1   
    78    38    88 1   
    79    38    89 1   
    80    38    90 1   
    81    39    40 1   
    82    40    41 1   
    83    40    91 1   
    84    41    42 1   
    85    41    43 1   
    86    41    92 1   
    87    42    93 1   
    88    42    94 1   
    89    42    95 1   
    90    43    44 1   
    91    43    50 1   
    92    43    96 1   
    93    44    45 1   
    94    44    97 1   
    95    44    98 1   
    96    45    46 1   
    97    45    47 1   
    98    46    99 1   
    99    47    48 1   
   100    47   100 1   
   101    48    49 2   
   102    48    50 1   
   103    51   101 1   
   104    52   101 1   
   105    53   101 1   
@<TRIPOS>SUBSTRUCTURE
     1 BKX         1 TEMP              0 ****  ****    0 ROOT
