@<TRIPOS>MOLECULE
BKY
   44    47     1     0     0
SMALL
No Charge or Current Charge


@<TRIPOS>ATOM
      1 C1           5.1830     1.2150    -0.2470 ca         1 BKY      -0.112600
      2 C2           4.9300     0.5050     0.9510 ca         1 BKY      -0.094000
      3 C3           4.0720    -0.6090     0.9600 ca         1 BKY      -0.112500
      4 C4           3.4490    -1.0390    -0.2250 ca         1 BKY      -0.148300
      5 C5           3.6920    -0.3400    -1.4210 ca         1 BKY      -0.112500
      6 C6           4.5490     0.7750    -1.4340 ca         1 BKY      -0.094000
      7 C7           2.5200    -2.2460    -0.2130 c3         1 BKY       0.221900
      8 C8           0.1070    -2.6480     0.1190 ca         1 BKY       0.194100
      9 C9           0.2490    -4.0430    -0.0520 ca         1 BKY      -0.220000
     10 C10         -0.8720    -4.8840     0.0370 ca         1 BKY      -0.049000
     11 C11         -2.1360    -4.3380     0.3020 ca         1 BKY      -0.174000
     12 C12         -2.2850    -2.9520     0.4730 ca         1 BKY      -0.019000
     13 C13         -1.1680    -2.0980     0.3710 ca         1 BKY      -0.150800
     14 C            6.1120     2.4200    -0.2590 c          1 BKY       0.711600
     15 O            6.3020     3.0040    -1.3180 o          1 BKY      -0.716500
     16 C14         -1.3120    -0.6270     0.5700 ce         1 BKY       0.052800
     17 C15         -2.3860     0.1890     0.2750 cd         1 BKY      -0.344400
     18 C16         -2.7130     1.4560     0.9600 c          1 BKY       0.597400
     19 C17         -3.9720     1.9820     0.3640 ca         1 BKY      -0.146100
     20 C18         -4.4100     1.1090    -0.6190 ca         1 BKY      -0.146100
     21 C19         -3.4580    -0.0340    -0.7220 c          1 BKY       0.597400
     22 C20         -5.5820     1.3580    -1.3490 ca         1 BKY      -0.058500
     23 C21         -6.3110     2.5300    -1.0540 ca         1 BKY      -0.108500
     24 C22         -5.8640     3.4220    -0.0490 ca         1 BKY      -0.108500
     25 C23         -4.6820     3.1530     0.6730 ca         1 BKY      -0.058500
     26 O1           6.6380     2.7660     0.7900 o          1 BKY      -0.716500
     27 O2           1.1840    -1.7870     0.0440 os         1 BKY      -0.334100
     28 O3          -2.0720     1.9810     1.8600 o          1 BKY      -0.504100
     29 O4          -3.5550    -0.9650    -1.5090 o          1 BKY      -0.504100
     30 H1           5.3990     0.8160     1.8820 ha         1 BKY       0.130500
     31 H2           3.8920    -1.1370     1.8940 ha         1 BKY       0.087500
     32 H3           3.2140    -0.6590    -2.3450 ha         1 BKY       0.087500
     33 H4           4.7190     1.2970    -2.3730 ha         1 BKY       0.130500
     34 H5           2.5730    -2.7590    -1.1830 h1         1 BKY       0.031700
     35 H6           2.8440    -2.9500     0.5660 h1         1 BKY       0.031700
     36 H7           1.2170    -4.4920    -0.2530 ha         1 BKY       0.122000
     37 H8          -0.7600    -5.9590    -0.0950 ha         1 BKY       0.105000
     38 H9          -3.0030    -4.9890     0.3800 ha         1 BKY       0.112000
     39 H10         -3.2690    -2.5460     0.6950 ha         1 BKY       0.120000
     40 H11         -0.6070    -0.2200     1.3000 ha         1 BKY       0.215000
     41 H12         -5.9200     0.6690    -2.1200 ha         1 BKY       0.132000
     42 H13         -7.2240     2.7500    -1.6030 ha         1 BKY       0.111000
     43 H14         -6.4350     4.3210     0.1680 ha         1 BKY       0.111000
     44 H15         -4.3320     3.8330     1.4470 ha         1 BKY       0.132000
@<TRIPOS>BOND
     1     1     2 ar  
     2     1     6 ar  
     3     1    14 1   
     4     2     3 ar  
     5     2    30 1   
     6     3     4 ar  
     7     3    31 1   
     8     4     5 ar  
     9     4     7 1   
    10     5     6 ar  
    11     5    32 1   
    12     6    33 1   
    13     7    27 1   
    14     7    34 1   
    15     7    35 1   
    16     8     9 ar  
    17     8    13 ar  
    18     8    27 1   
    19     9    10 ar  
    20     9    36 1   
    21    10    11 ar  
    22    10    37 1   
    23    11    12 ar  
    24    11    38 1   
    25    12    13 ar  
    26    12    39 1   
    27    13    16 1   
    28    14    15 1   
    29    14    26 1   
    30    16    17 2   
    31    16    40 1   
    32    17    18 1   
    33    17    21 1   
    34    18    19 1   
    35    18    28 2   
    36    19    20 ar  
    37    19    25 ar  
    38    20    21 1   
    39    20    22 ar  
    40    21    29 2   
    41    22    23 ar  
    42    22    41 1   
    43    23    24 ar  
    44    23    42 1   
    45    24    25 ar  
    46    24    43 1   
    47    25    44 1   
@<TRIPOS>SUBSTRUCTURE
     1 BKY         1 TEMP              0 ****  ****    0 ROOT
