@<TRIPOS>MOLECULE
BKY
   44    47     1     0     0
SMALL
abcg2


@<TRIPOS>ATOM
      1 C1           4.8000     1.3480    -0.1720 ca         1 BKY      -0.112600
      2 C2           4.7190     0.5160     0.9420 ca         1 BKY      -0.094000
      3 C3           3.9500    -0.6380     0.9150 ca         1 BKY      -0.112500
      4 C4           3.2480    -0.9930    -0.2320 ca         1 BKY      -0.148300
      5 C5           3.3290    -0.1670    -1.3500 ca         1 BKY      -0.112500
      6 C6           4.0940     0.9890    -1.3180 ca         1 BKY      -0.094000
      7 C7           2.3940    -2.2220    -0.2550 c3         1 BKY       0.221900
      8 C8           0.0940    -2.7420     0.1100 ca         1 BKY       0.194100
      9 C9           0.2980    -4.1030    -0.1020 ca         1 BKY      -0.220000
     10 C10         -0.7710    -4.9820     0.0020 ca         1 BKY      -0.049000
     11 C11         -2.0440    -4.5260     0.3180 ca         1 BKY      -0.174000
     12 C12         -2.2490    -3.1730     0.5140 ca         1 BKY      -0.019000
     13 C13         -1.1980    -2.2600     0.4110 ca         1 BKY      -0.150800
     14 C            5.6440     2.6180    -0.1410 c          1 BKY       0.711600
     15 O            5.6440     3.3130    -1.1740 o          1 BKY      -0.716500
     16 C14         -1.3660    -0.8480     0.7000 ce         1 BKY       0.052800
     17 C15         -2.4040    -0.0390     0.4110 cd         1 BKY      -0.344400
     18 C16         -2.4340     1.3730     0.8680 c          1 BKY       0.597400
     19 C17         -3.6370     1.9890     0.2650 ca         1 BKY      -0.146100
     20 C18         -4.2930     1.0480    -0.5220 ca         1 BKY      -0.146100
     21 C19         -3.5720    -0.2480    -0.4780 c          1 BKY       0.597400
     22 C20         -5.4470     1.3720    -1.2150 ca         1 BKY      -0.058500
     23 C21         -5.9320     2.6680    -1.0920 ca         1 BKY      -0.108500
     24 C22         -5.2740     3.6110    -0.3010 ca         1 BKY      -0.108500
     25 C23         -4.1140     3.2830     0.3900 ca         1 BKY      -0.058500
     26 O1           6.2600     2.8500     0.9170 o          1 BKY      -0.716500
     27 O2           1.0580    -1.8150     0.0310 os         1 BKY      -0.334100
     28 O3          -1.6330     1.9230     1.5890 o          1 BKY      -0.504100
     29 O4          -3.8860    -1.2390    -1.0970 o          1 BKY      -0.504100
     30 H1           5.2650     0.7760     1.8390 ha         1 BKY       0.130500
     31 H2           3.8990    -1.2710     1.7930 ha         1 BKY       0.087500
     32 H3           2.7920    -0.4330    -2.2530 ha         1 BKY       0.087500
     33 H4           4.1480     1.6200    -2.1950 ha         1 BKY       0.130500
     34 H5           2.4300    -2.7060    -1.2360 h1         1 BKY       0.031700
     35 H6           2.7380    -2.9440     0.4920 h1         1 BKY       0.031700
     36 H7           1.2760    -4.4920    -0.3470 ha         1 BKY       0.122000
     37 H8          -0.5970    -6.0380    -0.1590 ha         1 BKY       0.105000
     38 H9          -2.8660    -5.2210     0.4180 ha         1 BKY       0.112000
     39 H10         -3.2300    -2.8200     0.7980 ha         1 BKY       0.120000
     40 H11         -0.5440    -0.3740     1.2320 ha         1 BKY       0.215000
     41 H12         -5.9570     0.6450    -1.8320 ha         1 BKY       0.132000
     42 H13         -6.8340     2.9540    -1.6170 ha         1 BKY       0.111000
     43 H14         -5.6750     4.6140    -0.2280 ha         1 BKY       0.111000
     44 H15         -3.6050     4.0150     1.0020 ha         1 BKY       0.132000
@<TRIPOS>BOND
     1     1     2 ar  
     2     1     6 ar  
     3     1    14 1   
     4     2     3 ar  
     5     2    30 1   
     6     3     4 ar  
     7     3    31 1   
     8     4     5 ar  
     9     4     7 1   
    10     5     6 ar  
    11     5    32 1   
    12     6    33 1   
    13     7    27 1   
    14     7    34 1   
    15     7    35 1   
    16     8     9 ar  
    17     8    13 ar  
    18     8    27 1   
    19     9    10 ar  
    20     9    36 1   
    21    10    11 ar  
    22    10    37 1   
    23    11    12 ar  
    24    11    38 1   
    25    12    13 ar  
    26    12    39 1   
    27    13    16 1   
    28    14    15 1   
    29    14    26 1   
    30    16    17 2   
    31    16    40 1   
    32    17    18 1   
    33    17    21 1   
    34    18    19 1   
    35    18    28 2   
    36    19    20 ar  
    37    19    25 ar  
    38    20    21 1   
    39    20    22 ar  
    40    21    29 2   
    41    22    23 ar  
    42    22    41 1   
    43    23    24 ar  
    44    23    42 1   
    45    24    25 ar  
    46    24    43 1   
    47    25    44 1   
@<TRIPOS>SUBSTRUCTURE
     1 BKY         1 TEMP              0 ****  ****    0 ROOT
