@<TRIPOS>MOLECULE
BKZ
   24    24     1     0     0
SMALL
abcg2


@<TRIPOS>ATOM
      1 C01         -4.3290    -0.0580    -1.3290 c3         1 BKZ      -0.203100
      2 C02         -3.4220    -0.0040    -0.1250 c          1 BKZ       0.570100
      3 C04         -1.9450    -0.0340    -0.4070 c3         1 BKZ      -0.181400
      4 C05         -1.0510     0.0300     0.8240 c3         1 BKZ      -0.013100
      5 C06          0.4060    -0.0130     0.4490 ca         1 BKZ      -0.120300
      6 C07          1.0760    -1.2250     0.3010 ca         1 BKZ      -0.068500
      7 C08          2.4070    -1.2780    -0.0820 ca         1 BKZ      -0.174000
      8 C09          3.1070    -0.1000    -0.3280 ca         1 BKZ       0.137100
      9 C11          2.4540     1.1210    -0.1840 ca         1 BKZ      -0.174000
     10 C12          1.1210     1.1540     0.1990 ca         1 BKZ      -0.068500
     11 O03         -3.8690     0.0550     0.9990 o          1 BKZ      -0.525100
     12 O10          4.4030    -0.1970    -0.6950 oh         1 BKZ      -0.534100
     13 H1          -3.7780    -0.0590    -2.2680 hc         1 BKZ       0.060033
     14 H2          -4.9400    -0.9610    -1.2870 hc         1 BKZ       0.060033
     15 H3          -1.7430    -0.9380    -0.9940 hc         1 BKZ       0.063200
     16 H4          -1.7270     0.7910    -1.0950 hc         1 BKZ       0.063200
     17 H5          -1.2620     0.9450     1.3810 hc         1 BKZ       0.058700
     18 H6          -1.2850    -0.8020     1.4920 hc         1 BKZ       0.058700
     19 H7           0.5510    -2.1540     0.4920 ha         1 BKZ       0.112500
     20 H8           2.9070    -2.2330    -0.1900 ha         1 BKZ       0.120000
     21 H9           2.9840     2.0500    -0.3680 ha         1 BKZ       0.120000
     22 H10          0.6340     2.1150     0.3110 ha         1 BKZ       0.112500
     23 H11          4.7740     0.6790    -0.8450 ho         1 BKZ       0.464000
     24 H12         -5.0070     0.7950    -1.3220 hc         1 BKZ       0.060033
@<TRIPOS>BOND
     1     1     2 1   
     2     1    13 1   
     3     1    14 1   
     4     1    24 1   
     5     2     3 1   
     6     2    11 2   
     7     3     4 1   
     8     3    15 1   
     9     3    16 1   
    10     4     5 1   
    11     4    17 1   
    12     4    18 1   
    13     5     6 ar  
    14     5    10 ar  
    15     6     7 ar  
    16     6    19 1   
    17     7     8 ar  
    18     7    20 1   
    19     8     9 ar  
    20     8    12 1   
    21     9    10 ar  
    22     9    21 1   
    23    10    22 1   
    24    12    23 1   
@<TRIPOS>SUBSTRUCTURE
     1 BKZ         1 TEMP              0 ****  ****    0 ROOT
