@<TRIPOS>MOLECULE
BKZ
   24    24     1     0     0
SMALL
No Charge or Current Charge


@<TRIPOS>ATOM
      1 C01         -4.2830    -0.5980    -0.7650 c3         1 BKZ      -0.203100
      2 C02         -3.4300     0.6230    -0.4270 c          1 BKZ       0.570100
      3 C04         -1.9280     0.5170    -0.7190 c3         1 BKZ      -0.181400
      4 C05         -1.1380     0.1170     0.5470 c3         1 BKZ      -0.013100
      5 C06          0.3530    -0.0100     0.2680 ca         1 BKZ      -0.120300
      6 C07          0.9000    -1.2480    -0.1230 ca         1 BKZ      -0.068500
      7 C08          2.2770    -1.3610    -0.3840 ca         1 BKZ      -0.174000
      8 C09          3.1120    -0.2410    -0.2590 ca         1 BKZ       0.137100
      9 C11          2.5730     0.9960     0.1280 ca         1 BKZ      -0.174000
     10 C12          1.1960     1.1130     0.3900 ca         1 BKZ      -0.068500
     11 O03         -3.9220     1.6350     0.0560 o          1 BKZ      -0.525100
     12 O10          4.4440    -0.3620    -0.5150 oh         1 BKZ      -0.534100
     13 H1          -4.1680    -0.8260    -1.8310 hc         1 BKZ       0.060033
     14 H2          -3.8440    -1.4840    -0.2910 hc         1 BKZ       0.060033
     15 H3          -1.7570    -0.2620    -1.4720 hc         1 BKZ       0.063200
     16 H4          -1.5580     1.4840    -1.0760 hc         1 BKZ       0.063200
     17 H5          -1.3120     0.8640     1.3330 hc         1 BKZ       0.058700
     18 H6          -1.5300    -0.8310     0.9380 hc         1 BKZ       0.058700
     19 H7           0.2590    -2.1210    -0.2250 ha         1 BKZ       0.112500
     20 H8           2.6940    -2.3190    -0.6850 ha         1 BKZ       0.120000
     21 H9           3.2120     1.8700     0.2260 ha         1 BKZ       0.120000
     22 H10          0.7850     2.0750     0.6870 ha         1 BKZ       0.112500
     23 H11          4.8670     0.5130    -0.3780 ho         1 BKZ       0.464000
     24 H12         -5.3360    -0.4680    -0.4930 hc         1 BKZ       0.060033
@<TRIPOS>BOND
     1     1     2 1   
     2     1    13 1   
     3     1    14 1   
     4     1    24 1   
     5     2     3 1   
     6     2    11 2   
     7     3     4 1   
     8     3    15 1   
     9     3    16 1   
    10     4     5 1   
    11     4    17 1   
    12     4    18 1   
    13     5     6 ar  
    14     5    10 ar  
    15     6     7 ar  
    16     6    19 1   
    17     7     8 ar  
    18     7    20 1   
    19     8     9 ar  
    20     8    12 1   
    21     9    10 ar  
    22     9    21 1   
    23    10    22 1   
    24    12    23 1   
@<TRIPOS>SUBSTRUCTURE
     1 BKZ         1 TEMP              0 ****  ****    0 ROOT
