@<TRIPOS>MOLECULE
BL0
   23    23     1     0     0
SMALL
abcg2


@<TRIPOS>ATOM
      1 CA1         -4.4070     7.5130    12.9980 c3         1 BL0       0.207100
      2 NA1         -5.2690     6.3400    12.9020 nh         1 BL0      -0.762300
      3 CA2         -6.6920     6.5460    12.6840 c3         1 BL0       0.207100
      4 CA3         -4.8270     5.1710    13.3960 cc         1 BL0       0.686300
      5 SA1         -5.8670     3.7700    13.5700 ss         1 BL0      -0.304800
      6 NA2         -3.5850     4.9440    13.7880 nd         1 BL0      -0.421000
      7 NA3         -3.3950     3.6600    14.2000 nd         1 BL0      -0.267000
      8 CA4         -4.4580     2.9210    14.1530 cc         1 BL0       0.392700
      9 CA5         -4.4900     1.5020    14.5850 c3         1 BL0      -0.361700
     10 SA2         -5.0380     1.3390    16.3060 s6         1 BL0       1.194100
     11 OA1         -6.3990     1.8150    16.3890 o          1 BL0      -0.516500
     12 NA4         -5.0690    -0.2610    16.6400 n8         1 BL0      -1.008100
     13 OA2         -4.0280     1.9310    17.1480 o          1 BL0      -0.516500
     14 HA1         -4.4230     7.9380    14.0080 h1         1 BL0       0.050867
     15 HA1A        -3.3850     7.2400    12.7490 h1         1 BL0       0.050867
     16 HA1B        -4.7620     8.2600    12.2920 h1         1 BL0       0.050867
     17 HA2         -7.2320     6.6910    13.6250 h1         1 BL0       0.050867
     18 HA2A        -6.8250     7.4280    12.0610 h1         1 BL0       0.050867
     19 HA2B        -7.1200     5.6920    12.1580 h1         1 BL0       0.050867
     20 HA5         -5.1770     0.8980    13.9920 h1         1 BL0       0.101700
     21 HA5A        -3.4900     1.0710    14.5490 h1         1 BL0       0.101700
     22 HNA4        -5.7610    -0.7730    16.1040 hn         1 BL0       0.480500
     23 HNAA        -4.1540    -0.6990    16.6190 hn         1 BL0       0.480500
@<TRIPOS>BOND
     1     1     2 1   
     2     1    14 1   
     3     1    15 1   
     4     1    16 1   
     5     2     3 1   
     6     2     4 1   
     7     3    17 1   
     8     3    18 1   
     9     3    19 1   
    10     4     5 1   
    11     4     6 2   
    12     5     8 1   
    13     6     7 1   
    14     7     8 2   
    15     8     9 1   
    16     9    10 1   
    17     9    20 1   
    18     9    21 1   
    19    10    11 2   
    20    10    12 1   
    21    10    13 2   
    22    12    22 1   
    23    12    23 1   
@<TRIPOS>SUBSTRUCTURE
     1 BL0         1 TEMP              0 ****  ****    0 ROOT
