@<TRIPOS>MOLECULE
BL0
   23    23     1     0     0
SMALL
No Charge or Current Charge


@<TRIPOS>ATOM
      1 CA1         -4.3860     7.5200    12.8630 c3         1 BL0       0.207100
      2 NA1         -5.3370     6.4000    13.0610 nh         1 BL0      -0.762300
      3 CA2         -6.7760     6.6710    12.8290 c3         1 BL0       0.207100
      4 CA3         -4.8950     5.1500    13.4490 cc         1 BL0       0.686300
      5 SA1         -5.9940     3.8250    13.6850 ss         1 BL0      -0.304800
      6 NA2         -3.6190     4.8680    13.6660 nd         1 BL0      -0.421000
      7 NA3         -3.4380     3.5490    14.0440 nd         1 BL0      -0.267000
      8 CA4         -4.5900     2.9010    14.1130 cc         1 BL0       0.392700
      9 CA5         -4.7030     1.4600    14.4540 c3         1 BL0      -0.361700
     10 SA2         -4.7130     1.2240    16.2060 s6         1 BL0       1.194100
     11 OA1         -5.9200     1.7950    16.7960 o          1 BL0      -0.516500
     12 NA4         -4.9070    -0.3940    16.2880 n8         1 BL0      -1.008100
     13 OA2         -3.3950     1.4900    16.7740 o          1 BL0      -0.516500
     14 HA1         -3.8430     7.7310    13.7940 h1         1 BL0       0.050867
     15 HA1A        -3.6530     7.2670    12.0850 h1         1 BL0       0.050867
     16 HA1B        -4.9000     8.4400    12.5550 h1         1 BL0       0.050867
     17 HA2         -7.3540     6.4830    13.7430 h1         1 BL0       0.050867
     18 HA2A        -6.9480     7.7130    12.5290 h1         1 BL0       0.050867
     19 HA2B        -7.1640     6.0220    12.0320 h1         1 BL0       0.050867
     20 HA5         -5.6400     1.0430    14.0720 h1         1 BL0       0.101700
     21 HA5A        -3.8510     0.8970    14.0600 h1         1 BL0       0.101700
     22 HNA4        -4.1300    -0.6540    16.8920 hn         1 BL0       0.480500
     23 HNAA        -5.6970    -0.4640    16.9260 hn         1 BL0       0.480500
@<TRIPOS>BOND
     1     1     2 1   
     2     1    14 1   
     3     1    15 1   
     4     1    16 1   
     5     2     3 1   
     6     2     4 1   
     7     3    17 1   
     8     3    18 1   
     9     3    19 1   
    10     4     5 1   
    11     4     6 2   
    12     5     8 1   
    13     6     7 1   
    14     7     8 2   
    15     8     9 1   
    16     9    10 1   
    17     9    20 1   
    18     9    21 1   
    19    10    11 2   
    20    10    12 1   
    21    10    13 2   
    22    12    22 1   
    23    12    23 1   
@<TRIPOS>SUBSTRUCTURE
     1 BL0         1 TEMP              0 ****  ****    0 ROOT
