@<TRIPOS>MOLECULE
BL2
   36    35     1     0     0
SMALL
No Charge or Current Charge


@<TRIPOS>ATOM
      1 O1          66.8580   -55.6020    11.7230 o          1 BL2      -0.558000
      2 CX          66.8630   -54.3940    11.5520 c          1 BL2       0.645100
      3 O2          67.8580   -53.6430    10.9880 os         1 BL2      -0.486100
      4 CT          69.1060   -54.2190    10.5330 c3         1 BL2       0.225000
      5 C1          69.9090   -53.0140     9.9940 c3         1 BL2      -0.103100
      6 C2          69.8540   -54.8570    11.7340 c3         1 BL2      -0.103100
      7 C3          68.8300   -55.2250     9.3850 c3         1 BL2      -0.103100
      8 N           65.8380   -53.5510    11.8880 ns         1 BL2      -0.442900
      9 CA          64.5770   -53.9440    12.5620 c3         1 BL2      -0.042300
     10 C           63.3680   -53.2220    11.8920 c          1 BL2       0.711000
     11 O           63.3890   -52.0010    11.8050 o          1 BL2      -0.724000
     12 CB          64.6260   -53.6600    14.0900 c3         1 BL2      -0.066400
     13 CG          65.6540   -54.4940    14.9070 c3         1 BL2      -0.062700
     14 CD1         65.7730   -53.9580    16.3520 c3         1 BL2      -0.082100
     15 CD2         65.3250   -56.0060    14.9160 c3         1 BL2      -0.082100
     16 OXT         62.4780   -53.9110    11.4140 o          1 BL2      -0.724000
     17 H1          70.0760   -52.2710    10.7840 hc         1 BL2       0.040811
     18 H2          70.8880   -53.3340     9.6180 hc         1 BL2       0.040811
     19 H3          69.3740   -52.5240     9.1720 hc         1 BL2       0.040811
     20 H4          69.8810   -54.1680    12.5860 hc         1 BL2       0.040811
     21 H5          69.3850   -55.7920    12.0590 hc         1 BL2       0.040811
     22 H6          70.8880   -55.0930    11.4560 hc         1 BL2       0.040811
     23 H7          68.3840   -56.1550     9.7520 hc         1 BL2       0.040811
     24 H8          68.1570   -54.7880     8.6380 hc         1 BL2       0.040811
     25 H9          69.7660   -55.4930     8.8800 hc         1 BL2       0.040811
     26 H10         65.9780   -52.5760    11.6580 hn         1 BL2       0.294500
     27 H11         64.4180   -55.0170    12.4050 h1         1 BL2       0.064700
     28 H12         64.8360   -52.5930    14.2350 hc         1 BL2       0.046700
     29 H13         63.6260   -53.8330    14.5090 hc         1 BL2       0.046700
     30 H14         66.6400   -54.3710    14.4430 hc         1 BL2       0.039700
     31 H15         66.5320   -54.5190    16.9120 hc         1 BL2       0.023200
     32 H16         66.0680   -52.9020    16.3520 hc         1 BL2       0.023200
     33 H17         64.8180   -54.0490    16.8840 hc         1 BL2       0.023200
     34 H18         66.0660   -56.5580    15.5060 hc         1 BL2       0.023200
     35 H19         64.3360   -56.1880    15.3530 hc         1 BL2       0.023200
     36 H20         65.3330   -56.4240    13.9030 hc         1 BL2       0.023200
@<TRIPOS>BOND
     1     1     2 2   
     2     2     3 1   
     3     2     8 1   
     4     3     4 1   
     5     4     5 1   
     6     4     6 1   
     7     4     7 1   
     8     5    17 1   
     9     5    18 1   
    10     5    19 1   
    11     6    20 1   
    12     6    21 1   
    13     6    22 1   
    14     7    23 1   
    15     7    24 1   
    16     7    25 1   
    17     8     9 1   
    18     8    26 1   
    19     9    10 1   
    20     9    12 1   
    21     9    27 1   
    22    10    11 1   
    23    10    16 1   
    24    12    13 1   
    25    12    28 1   
    26    12    29 1   
    27    13    14 1   
    28    13    15 1   
    29    13    30 1   
    30    14    31 1   
    31    14    32 1   
    32    14    33 1   
    33    15    34 1   
    34    15    35 1   
    35    15    36 1   
@<TRIPOS>SUBSTRUCTURE
     1 BL2         1 TEMP              0 ****  ****    0 ROOT
