@<TRIPOS>MOLECULE
BL2
   36    35     1     0     0
SMALL
bcc


@<TRIPOS>ATOM
      1 O1          66.7810   -55.6620    11.0560 o          1 BL2      -0.607000
      2 CX          67.0930   -54.6020    11.5620 c          1 BL2       0.761100
      3 O2          68.1700   -53.8770    11.2390 os         1 BL2      -0.462900
      4 CT          69.1280   -54.2980    10.2390 c3         1 BL2       0.201800
      5 C1          70.1560   -53.1710    10.2490 c3         1 BL2      -0.103100
      6 C2          69.8070   -55.6050    10.6330 c3         1 BL2      -0.103100
      7 C3          68.4820   -54.3880     8.8610 c3         1 BL2      -0.103100
      8 N           66.4190   -54.0140    12.5740 ns         1 BL2      -0.509900
      9 CA          65.0420   -54.3750    12.8330 c3         1 BL2      -0.042300
     10 C           64.0810   -53.9750    11.6780 c          1 BL2       0.921600
     11 O           64.5230   -53.2140    10.8000 o          1 BL2      -0.829300
     12 CB          64.5830   -53.7310    14.1410 c3         1 BL2      -0.066400
     13 CG          65.4020   -54.0770    15.3860 c3         1 BL2      -0.062700
     14 CD1         64.8240   -53.3490    16.5960 c3         1 BL2      -0.082100
     15 CD2         65.4560   -55.5780    15.6440 c3         1 BL2      -0.082100
     16 OXT         62.9320   -54.4530    11.7630 o          1 BL2      -0.829300
     17 H1          70.6310   -53.0750    11.2260 hc         1 BL2       0.040811
     18 H2          70.9360   -53.3770     9.5160 hc         1 BL2       0.040811
     19 H3          69.6990   -52.2140     9.9920 hc         1 BL2       0.040811
     20 H4          70.2180   -55.5420    11.6420 hc         1 BL2       0.040811
     21 H5          69.1330   -56.4570    10.5840 hc         1 BL2       0.040811
     22 H6          70.6360   -55.7960     9.9500 hc         1 BL2       0.040811
     23 H7          67.7790   -55.2140     8.7840 hc         1 BL2       0.040811
     24 H8          67.9610   -53.4620     8.6130 hc         1 BL2       0.040811
     25 H9          69.2580   -54.5410     8.1100 hc         1 BL2       0.040811
     26 H10         66.6730   -53.0600    12.7810 hn         1 BL2       0.294500
     27 H11         64.9900   -55.4610    12.9460 h1         1 BL2       0.064700
     28 H12         64.5750   -52.6410    14.0160 hc         1 BL2       0.046700
     29 H13         63.5440   -54.0260    14.3070 hc         1 BL2       0.046700
     30 H14         66.4270   -53.7200    15.2410 hc         1 BL2       0.039700
     31 H15         65.4090   -53.5460    17.4960 hc         1 BL2       0.023200
     32 H16         64.8060   -52.2680    16.4420 hc         1 BL2       0.023200
     33 H17         63.7980   -53.6720    16.7910 hc         1 BL2       0.023200
     34 H18         65.9960   -55.7960    16.5670 hc         1 BL2       0.023200
     35 H19         64.4500   -55.9930    15.7440 hc         1 BL2       0.023200
     36 H20         65.9590   -56.1170    14.8390 hc         1 BL2       0.023200
@<TRIPOS>BOND
     1     1     2 2   
     2     2     3 1   
     3     2     8 1   
     4     3     4 1   
     5     4     5 1   
     6     4     6 1   
     7     4     7 1   
     8     5    17 1   
     9     5    18 1   
    10     5    19 1   
    11     6    20 1   
    12     6    21 1   
    13     6    22 1   
    14     7    23 1   
    15     7    24 1   
    16     7    25 1   
    17     8     9 1   
    18     8    26 1   
    19     9    10 1   
    20     9    12 1   
    21     9    27 1   
    22    10    11 1   
    23    10    16 1   
    24    12    13 1   
    25    12    28 1   
    26    12    29 1   
    27    13    14 1   
    28    13    15 1   
    29    13    30 1   
    30    14    31 1   
    31    14    32 1   
    32    14    33 1   
    33    15    34 1   
    34    15    35 1   
    35    15    36 1   
@<TRIPOS>SUBSTRUCTURE
     1 BL2         1 TEMP              0 ****  ****    0 ROOT
