@<TRIPOS>MOLECULE
BL3
   75    78     1     0     0
SMALL
abcg2


@<TRIPOS>ATOM
      1 NA          -0.3520     1.3390    -0.5340 na         1 BL3      -0.085000
      2 NB           2.5120     1.0910    -1.2620 ns         1 BL3      -0.411100
      3 OB           4.1400    -0.3940    -1.9340 o          1 BL3      -0.543000
      4 NC           2.1860    -1.2280     1.0270 ns         1 BL3      -0.400100
      5 ND          -0.3730    -1.3590    -0.2340 nc         1 BL3      -0.661300
      6 C1A         -1.7120     1.2250    -0.5860 cc         1 BL3      -0.189800
      7 O1A         -6.1250     3.8190     2.0050 o          1 BL3      -0.739500
      8 C1B          2.4790     2.3440    -0.6820 cc         1 BL3       0.002600
      9 C1C          3.3950    -0.8330     1.5340 c          1 BL3       0.554200
     10 C1D         -0.1050    -2.6510    -0.2500 cd         1 BL3       0.470900
     11 C2A         -2.2400     2.5270    -0.6170 cd         1 BL3      -0.037300
     12 O2A         -6.2980     3.7930    -0.2160 o          1 BL3      -0.739500
     13 C2B          3.8670     2.6870    -0.3660 cc         1 BL3       0.002000
     14 C2C          4.3340    -1.9450     1.2580 cd         1 BL3      -0.177400
     15 C2D         -1.2970    -3.4460    -0.4800 cd         1 BL3      -0.287800
     16 C3A         -1.1570     3.4120    -0.5510 cd         1 BL3      -0.142300
     17 C3B          4.6590     1.6590    -0.7540 cd         1 BL3      -0.184400
     18 C3C          3.6380    -2.9380     0.6580 cc         1 BL3      -0.015000
     19 C3D         -2.3260    -2.5550    -0.5890 cc         1 BL3      -0.012200
     20 C4A          0.0150     2.6400    -0.5040 cc         1 BL3      -0.135800
     21 C4B          3.8050     0.6370    -1.3860 c          1 BL3       0.552200
     22 C4C          2.2480    -2.4920     0.4980 cc         1 BL3       0.046600
     23 C4D         -1.7280    -1.2420    -0.4550 cc         1 BL3       0.005600
     24 CAA         -3.6850     2.8980    -0.6310 c3         1 BL3      -0.011100
     25 CAB          4.2290     3.9340     0.2880 ce         1 BL3      -0.158000
     26 CBA         -4.1980     3.2180     0.7720 c3         1 BL3      -0.202400
     27 CBB          5.3130     4.1320     1.0390 c2         1 BL3      -0.301000
     28 CBC          5.3270    -4.5290    -0.2040 c2         1 BL3      -0.309000
     29 CGA         -5.6750     3.6460     0.8540 c          1 BL3       0.722000
     30 CGD         -6.0430    -2.9840     0.5200 c          1 BL3       0.721000
     31 CHA         -2.3560    -0.0280    -0.5880 cf         1 BL3       0.047800
     32 CHB          1.3760     3.0750    -0.4020 ce         1 BL3      -0.120200
     33 CMA         -1.2320     4.9020    -0.5380 c3         1 BL3      -0.012800
     34 CMB          6.1240     1.4710    -0.6290 c3         1 BL3      -0.026900
     35 CMD         -1.3490    -4.9340    -0.5590 c3         1 BL3      -0.010900
     36 HNA          0.2120     0.5040    -0.4030 hn         1 BL3       0.387000
     37 HNB          1.7660     0.6970    -1.8130 hn         1 BL3       0.345500
     38 HNC          1.3270    -0.7040     1.0950 hn         1 BL3       0.367500
     39 HAA         -3.8310     3.7660    -1.2790 hc         1 BL3       0.055200
     40 HAAA        -4.2810     2.0940    -1.0680 hc         1 BL3       0.055200
     41 HAB          3.5470     4.7660     0.1490 ha         1 BL3       0.174000
     42 HAC          3.3630    -5.0470     0.2450 ha         1 BL3       0.176000
     43 HAD         -4.2150    -2.1720    -1.5020 hc         1 BL3       0.053700
     44 HADA        -3.9260    -3.8490    -1.1250 hc         1 BL3       0.053700
     45 HBA         -4.0470     2.3520     1.4240 hc         1 BL3       0.023200
     46 HBAA        -3.5870     4.0150     1.2100 hc         1 BL3       0.023200
     47 HBB          5.5050     5.1010     1.4790 ha         1 BL3       0.161500
     48 HBBA         6.0270     3.3500     1.2610 ha         1 BL3       0.161500
     49 HBC          5.5920    -5.5360    -0.4970 ha         1 BL3       0.159500
     50 HBCA         6.1010    -3.7790    -0.2990 ha         1 BL3       0.159500
     51 HBD         -4.0770    -3.3050     1.3360 hc         1 BL3       0.026200
     52 HBDA        -4.4110    -1.6470     0.9440 hc         1 BL3       0.026200
     53 HHA         -3.4320    -0.0200    -0.7210 ha         1 BL3       0.231000
     54 HHB          1.5260     4.0820    -0.0380 ha         1 BL3       0.193000
     55 HHD          1.3990    -4.2000    -0.3510 ha         1 BL3       0.185000
     56 HMA         -1.4320     5.2890     0.4650 hc         1 BL3       0.034700
     57 HMAA        -0.3080     5.3620    -0.8860 hc         1 BL3       0.034700
     58 HMAB        -2.0360     5.2610    -1.1820 hc         1 BL3       0.034700
     59 HMB          6.3890     1.1100     0.3680 hc         1 BL3       0.042700
     60 HMBA         6.4790     0.7300    -1.3440 hc         1 BL3       0.042700
     61 HMBB         6.6690     2.4010    -0.7930 hc         1 BL3       0.042700
     62 HMC          5.8990    -1.1740     2.4760 hc         1 BL3       0.042033
     63 HMCA         6.1480    -2.8470     1.9480 hc         1 BL3       0.042033
     64 HMCB         6.3800    -1.5170     0.8230 hc         1 BL3       0.042033
     65 HMD         -0.6210    -5.3990     0.1070 hc         1 BL3       0.028367
     66 HMDA        -2.3310    -5.3150    -0.2810 hc         1 BL3       0.028367
     67 HMDB        -1.1340    -5.2950    -1.5670 hc         1 BL3       0.028367
     68 CAD         -3.7830    -2.8360    -0.7480 c3         1 BL3      -0.020200
     69 CAC          4.0960    -4.2470     0.2210 ce         1 BL3      -0.153000
     70 OC           3.6190     0.2130     2.1110 o          1 BL3      -0.545000
     71 CBD         -4.5370    -2.6700     0.5720 c3         1 BL3      -0.204400
     72 CHD          1.2180    -3.1760    -0.0490 cf         1 BL3      -0.245600
     73 CMC          5.7610    -1.8720     1.6510 c3         1 BL3      -0.026900
     74 O1D         -6.5200    -3.3790    -0.5610 o          1 BL3      -0.738500
     75 O2D         -6.6670    -2.8150     1.5890 o          1 BL3      -0.738500
@<TRIPOS>BOND
     1     1     6 1   
     2     1    20 1   
     3     1    36 1   
     4     2     8 1   
     5     2    21 1   
     6     2    37 1   
     7     3    21 2   
     8     4     9 1   
     9     4    22 1   
    10     4    38 1   
    11     5    10 2   
    12     5    23 1   
    13     6    11 2   
    14     6    31 1   
    15     7    29 1   
    16     8    13 1   
    17     8    32 2   
    18     9    14 1   
    19     9    70 2   
    20    10    15 1   
    21    10    72 1   
    22    11    16 1   
    23    11    24 1   
    24    12    29 1   
    25    13    17 2   
    26    13    25 1   
    27    14    18 2   
    28    14    73 1   
    29    15    19 2   
    30    15    35 1   
    31    16    20 2   
    32    16    33 1   
    33    17    21 1   
    34    17    34 1   
    35    18    22 1   
    36    18    69 1   
    37    19    23 1   
    38    19    68 1   
    39    20    32 1   
    40    22    72 2   
    41    23    31 2   
    42    24    26 1   
    43    24    39 1   
    44    24    40 1   
    45    25    27 2   
    46    25    41 1   
    47    26    29 1   
    48    26    45 1   
    49    26    46 1   
    50    27    47 1   
    51    27    48 1   
    52    28    49 1   
    53    28    50 1   
    54    28    69 2   
    55    30    71 1   
    56    30    74 1   
    57    30    75 1   
    58    31    53 1   
    59    32    54 1   
    60    33    56 1   
    61    33    57 1   
    62    33    58 1   
    63    34    59 1   
    64    34    60 1   
    65    34    61 1   
    66    35    65 1   
    67    35    66 1   
    68    35    67 1   
    69    42    69 1   
    70    43    68 1   
    71    44    68 1   
    72    51    71 1   
    73    52    71 1   
    74    55    72 1   
    75    62    73 1   
    76    63    73 1   
    77    64    73 1   
    78    68    71 1   
@<TRIPOS>SUBSTRUCTURE
     1 BL3         1 TEMP              0 ****  ****    0 ROOT
