@<TRIPOS>MOLECULE
BL3
   75    78     1     0     0
SMALL
No Charge or Current Charge


@<TRIPOS>ATOM
      1 NA          -0.2550     1.5620    -0.5710 na         1 BL3      -0.085000
      2 NB           2.5590     1.4690    -1.7030 ns         1 BL3      -0.411100
      3 OB           4.0390    -0.2140    -2.2480 o          1 BL3      -0.543000
      4 NC           2.3870    -1.3650     1.1110 ns         1 BL3      -0.400100
      5 ND          -0.3020    -1.3030    -0.1700 nc         1 BL3      -0.661300
      6 C1A         -1.6160     1.3210    -0.4920 cc         1 BL3      -0.189800
      7 O1A         -6.6030     2.5480     0.7470 o          1 BL3      -0.739500
      8 C1B          2.5340     2.6110    -0.9460 cc         1 BL3       0.002600
      9 C1C          3.5850    -0.9800     1.6090 c          1 BL3       0.554200
     10 C1D         -0.0870    -2.6120    -0.1710 cd         1 BL3       0.470900
     11 C2A         -2.2390     2.5420    -0.6120 cd         1 BL3      -0.037300
     12 O2A         -6.0240     4.6210     0.7040 o          1 BL3      -0.739500
     13 C2B          3.8150     2.7520    -0.3130 cc         1 BL3       0.002000
     14 C2C          4.4710    -2.0960     1.2200 cd         1 BL3      -0.177400
     15 C2D         -1.2980    -3.3610    -0.2870 cd         1 BL3      -0.287800
     16 C3A         -1.2190     3.5290    -0.7560 cd         1 BL3      -0.142300
     17 C3B          4.5570     1.6570    -0.7450 cd         1 BL3      -0.184400
     18 C3C          3.7490    -3.0610     0.5280 cc         1 BL3      -0.015000
     19 C3D         -2.2970    -2.4270    -0.3590 cc         1 BL3      -0.012200
     20 C4A          0.0120     2.9140    -0.7440 cc         1 BL3      -0.135800
     21 C4B          3.7460     0.8120    -1.6540 c          1 BL3       0.552200
     22 C4C          2.3930    -2.5740     0.4700 cc         1 BL3       0.046600
     23 C4D         -1.6650    -1.1440    -0.2920 cc         1 BL3       0.005600
     24 CAA         -3.7260     2.8340    -0.5980 c3         1 BL3      -0.011100
     25 CAB          4.1870     3.8590     0.5720 ce         1 BL3      -0.158000
     26 CBA         -4.2800     3.0180     0.8340 c3         1 BL3      -0.202400
     27 CBB          5.2260     3.8950     1.4360 c2         1 BL3      -0.301000
     28 CBC          5.4610    -4.6340    -0.4250 c2         1 BL3      -0.309000
     29 CGA         -5.7600     3.4300     0.7740 c          1 BL3       0.722000
     30 CGD         -6.0200    -2.9680     0.6130 c          1 BL3       0.721000
     31 CHA         -2.2400     0.1060    -0.3440 cf         1 BL3       0.047800
     32 CHB          1.3580     3.4780    -0.8690 ce         1 BL3      -0.120200
     33 CMA         -1.4720     5.0110    -0.9140 c3         1 BL3      -0.012800
     34 CMB          5.9890     1.2740    -0.4470 c3         1 BL3      -0.026900
     35 CMD         -1.4280    -4.8640    -0.3200 c3         1 BL3      -0.010900
     36 HNA          0.4420     0.8260    -0.5010 hn         1 BL3       0.387000
     37 HNB          1.8160     1.1580    -2.3160 hn         1 BL3       0.345500
     38 HNC          1.5590    -0.7950     1.2300 hn         1 BL3       0.367500
     39 HAA         -3.9310     3.7420    -1.1770 hc         1 BL3       0.055200
     40 HAAA        -4.2820     2.0380    -1.1080 hc         1 BL3       0.055200
     41 HAB          3.5170     4.7190     0.5230 ha         1 BL3       0.174000
     42 HAC          3.4240    -5.0930    -0.1360 ha         1 BL3       0.176000
     43 HAD         -4.2090    -1.9190    -1.2000 hc         1 BL3       0.053700
     44 HADA        -3.9520    -3.6330    -0.9830 hc         1 BL3       0.053700
     45 HBA         -4.1680     2.0450     1.3280 hc         1 BL3       0.023200
     46 HBAA        -3.6800     3.8160     1.2880 hc         1 BL3       0.023200
     47 HBB          5.4070     4.7680     2.0630 ha         1 BL3       0.161500
     48 HBBA         5.9150     3.0630     1.5630 ha         1 BL3       0.161500
     49 HBC          5.7070    -5.6130    -0.8390 ha         1 BL3       0.159500
     50 HBCA         6.2760    -3.9150    -0.3720 ha         1 BL3       0.159500
     51 HBD         -4.0600    -3.3570     1.4780 hc         1 BL3       0.026200
     52 HBDA        -4.4440    -1.5820     1.2020 hc         1 BL3       0.026200
     53 HHA         -3.3280     0.1150    -0.3560 ha         1 BL3       0.231000
     54 HHB          1.5000     4.5350    -0.6450 ha         1 BL3       0.193000
     55 HHD          1.4080    -4.1230    -0.5080 ha         1 BL3       0.185000
     56 HMA         -2.1750     5.3730    -0.1550 hc         1 BL3       0.034700
     57 HMAA        -0.5540     5.5990    -0.8150 hc         1 BL3       0.034700
     58 HMAB        -1.9010     5.2290    -1.9000 hc         1 BL3       0.034700
     59 HMB          6.0890     0.8960     0.5760 hc         1 BL3       0.042700
     60 HMBA         6.3520     0.4910    -1.1230 hc         1 BL3       0.042700
     61 HMBB         6.6570     2.1350    -0.5600 hc         1 BL3       0.042700
     62 HMC          6.1120    -1.3800     2.4470 hc         1 BL3       0.042033
     63 HMCA         6.2610    -3.0660     1.9500 hc         1 BL3       0.042033
     64 HMCB         6.5610    -1.7660     0.7800 hc         1 BL3       0.042033
     65 HMD         -0.6150    -5.3470     0.2350 hc         1 BL3       0.028367
     66 HMDA        -2.3710    -5.1930     0.1310 hc         1 BL3       0.028367
     67 HMDB        -1.3990    -5.2370    -1.3510 hc         1 BL3       0.028367
     68 CAD         -3.7820    -2.6570    -0.5110 c3         1 BL3      -0.020200
     69 CAC          4.2040    -4.3390    -0.0240 ce         1 BL3      -0.153000
     70 OC           3.8250     0.0380     2.2390 o          1 BL3      -0.545000
     71 CBD         -4.5420    -2.6100     0.8350 c3         1 BL3      -0.204400
     72 CHD          1.2760    -3.1320    -0.0850 cf         1 BL3      -0.245600
     73 CMC          5.9280    -2.0750     1.6200 c3         1 BL3      -0.026900
     74 O1D         -6.3430    -4.1440     0.6730 o          1 BL3      -0.738500
     75 O2D         -6.7950    -2.0670     0.3320 o          1 BL3      -0.738500
@<TRIPOS>BOND
     1     1     6 1   
     2     1    20 1   
     3     1    36 1   
     4     2     8 1   
     5     2    21 1   
     6     2    37 1   
     7     3    21 2   
     8     4     9 1   
     9     4    22 1   
    10     4    38 1   
    11     5    10 2   
    12     5    23 1   
    13     6    11 2   
    14     6    31 1   
    15     7    29 1   
    16     8    13 1   
    17     8    32 2   
    18     9    14 1   
    19     9    70 2   
    20    10    15 1   
    21    10    72 1   
    22    11    16 1   
    23    11    24 1   
    24    12    29 1   
    25    13    17 2   
    26    13    25 1   
    27    14    18 2   
    28    14    73 1   
    29    15    19 2   
    30    15    35 1   
    31    16    20 2   
    32    16    33 1   
    33    17    21 1   
    34    17    34 1   
    35    18    22 1   
    36    18    69 1   
    37    19    23 1   
    38    19    68 1   
    39    20    32 1   
    40    22    72 2   
    41    23    31 2   
    42    24    26 1   
    43    24    39 1   
    44    24    40 1   
    45    25    27 2   
    46    25    41 1   
    47    26    29 1   
    48    26    45 1   
    49    26    46 1   
    50    27    47 1   
    51    27    48 1   
    52    28    49 1   
    53    28    50 1   
    54    28    69 2   
    55    30    71 1   
    56    30    74 1   
    57    30    75 1   
    58    31    53 1   
    59    32    54 1   
    60    33    56 1   
    61    33    57 1   
    62    33    58 1   
    63    34    59 1   
    64    34    60 1   
    65    34    61 1   
    66    35    65 1   
    67    35    66 1   
    68    35    67 1   
    69    42    69 1   
    70    43    68 1   
    71    44    68 1   
    72    51    71 1   
    73    52    71 1   
    74    55    72 1   
    75    62    73 1   
    76    63    73 1   
    77    64    73 1   
    78    68    71 1   
@<TRIPOS>SUBSTRUCTURE
     1 BL3         1 TEMP              0 ****  ****    0 ROOT
