@<TRIPOS>MOLECULE
BL4
   38    41     1     0     0
SMALL
bcc


@<TRIPOS>ATOM
      1 O2          -2.5980    -2.0730     0.8640 o          1 BL4      -0.492100
      2 C4          -1.9460    -1.2030     0.3320 c          1 BL4       0.578700
      3 C3          -0.5550    -1.5000    -0.2060 c5         1 BL4      -0.032500
      4 O1          -0.6880    -1.8170    -1.5800 oh         1 BL4      -0.571800
      5 C2           0.2310    -2.6000     0.4670 c5         1 BL4      -0.073400
      6 C1           1.6710    -2.2110     0.1540 c5         1 BL4       0.218800
      7 N1           1.6240    -0.7460     0.0940 nh         1 BL4      -0.606000
      8 C12          2.8000     0.0170     0.1160 ca         1 BL4       0.164600
      9 C17          4.0240    -0.6260    -0.0990 ca         1 BL4      -0.160000
     10 C16          5.2100     0.0910    -0.0690 ca         1 BL4      -0.106500
     11 C15          5.2060     1.4570     0.1740 ca         1 BL4      -0.149000
     12 C14          3.9930     2.0950     0.3880 ca         1 BL4      -0.106500
     13 C13          2.7970     1.3930     0.3620 ca         1 BL4      -0.160000
     14 C11          0.3540    -0.3030    -0.0510 c2         1 BL4       0.636200
     15 N2          -0.0390     0.9140    -0.0900 ne         1 BL4      -0.660100
     16 C10         -1.4090     1.1510    -0.1570 ca         1 BL4       0.200400
     17 C5          -2.4050     0.1680     0.0610 ca         1 BL4      -0.239600
     18 C9          -1.7960     2.4680    -0.3990 ca         1 BL4      -0.134000
     19 C8          -3.1360     2.8010    -0.4450 ca         1 BL4      -0.083000
     20 C7          -4.1120     1.8360    -0.2370 ca         1 BL4      -0.164000
     21 C6          -3.7710     0.5160     0.0300 ca         1 BL4       0.008700
     22 C18         -4.8760    -0.4760     0.2500 c3         1 BL4      -0.054800
     23 HO1         -1.0160    -1.0550    -2.0720 ho         1 BL4       0.423000
     24 H2           0.0640    -2.5750     1.5440 hc         1 BL4       0.082200
     25 H2A         -0.0290    -3.5920     0.1030 hc         1 BL4       0.082200
     26 H1           2.3600    -2.5330     0.9330 h1         1 BL4       0.062200
     27 H1A          2.0090    -2.6280    -0.7960 h1         1 BL4       0.062200
     28 H17          4.0680    -1.6870    -0.2990 ha         1 BL4       0.149500
     29 H16          6.1420    -0.4310    -0.2410 ha         1 BL4       0.131000
     30 H15          6.1330     2.0140     0.1990 ha         1 BL4       0.133000
     31 H14          3.9680     3.1600     0.5820 ha         1 BL4       0.131000
     32 H13          1.8690     1.9140     0.5320 ha         1 BL4       0.149500
     33 H9          -1.0300     3.2170    -0.5460 ha         1 BL4       0.150000
     34 H8          -3.4270     3.8250    -0.6450 ha         1 BL4       0.135000
     35 H7          -5.1580     2.1130    -0.2840 ha         1 BL4       0.136000
     36 H18         -4.8930    -0.8420     1.2760 hc         1 BL4       0.053033
     37 H18A        -5.8380    -0.0080     0.0460 hc         1 BL4       0.053033
     38 H18B        -4.7840    -1.3470    -0.3980 hc         1 BL4       0.053033
@<TRIPOS>BOND
     1     1     2 2   
     2     2     3 1   
     3     2    17 1   
     4     3     4 1   
     5     3     5 1   
     6     3    14 1   
     7     4    23 1   
     8     5     6 1   
     9     5    24 1   
    10     5    25 1   
    11     6     7 1   
    12     6    26 1   
    13     6    27 1   
    14     7     8 1   
    15     7    14 1   
    16     8     9 ar  
    17     8    13 ar  
    18     9    10 ar  
    19     9    28 1   
    20    10    11 ar  
    21    10    29 1   
    22    11    12 ar  
    23    11    30 1   
    24    12    13 ar  
    25    12    31 1   
    26    13    32 1   
    27    14    15 2   
    28    15    16 1   
    29    16    17 ar  
    30    16    18 ar  
    31    17    21 ar  
    32    18    19 ar  
    33    18    33 1   
    34    19    20 ar  
    35    19    34 1   
    36    20    21 ar  
    37    20    35 1   
    38    21    22 1   
    39    22    36 1   
    40    22    37 1   
    41    22    38 1   
@<TRIPOS>SUBSTRUCTURE
     1 BL4         1 TEMP              0 ****  ****    0 ROOT
