@<TRIPOS>MOLECULE
BL4
   38    41     1     0     0
SMALL
No Charge or Current Charge


@<TRIPOS>ATOM
      1 O2          -2.4470    -1.7480     1.4620 o          1 BL4      -0.492100
      2 C4          -1.8770    -1.1220     0.5750 c          1 BL4       0.578700
      3 C3          -0.5730    -1.5480    -0.1640 c5         1 BL4      -0.009300
      4 O1          -0.8610    -1.9800    -1.5300 oh         1 BL4      -0.634000
      5 C2           0.2080    -2.6480     0.6160 c5         1 BL4      -0.073400
      6 C1           1.6610    -2.3200     0.1770 c5         1 BL4       0.218800
      7 N1           1.6420    -0.8360     0.2040 nh         1 BL4      -0.744400
      8 C12          2.7990    -0.0320     0.2080 ca         1 BL4       0.303000
      9 C17          3.9080    -0.3780    -0.5870 ca         1 BL4      -0.142000
     10 C16          5.0720     0.4110    -0.5740 ca         1 BL4      -0.088500
     11 C15          5.1370     1.5510     0.2430 ca         1 BL4      -0.131000
     12 C14          4.0400     1.9010     1.0470 ca         1 BL4      -0.088500
     13 C13          2.8780     1.1090     1.0300 ca         1 BL4      -0.142000
     14 C11          0.3760    -0.3640    -0.0760 c2         1 BL4       0.636200
     15 N2           0.0010     0.8670    -0.1860 ne         1 BL4      -0.660100
     16 C10         -1.3620     1.1770    -0.3020 ca         1 BL4       0.200400
     17 C5          -2.3400     0.2250     0.0620 ca         1 BL4      -0.239600
     18 C9          -1.7380     2.4510    -0.7510 ca         1 BL4      -0.116000
     19 C8          -3.0940     2.7890    -0.8540 ca         1 BL4      -0.065000
     20 C7          -4.0750     1.8490    -0.5060 ca         1 BL4      -0.146000
     21 C6          -3.7150     0.5660    -0.0470 ca         1 BL4       0.008700
     22 C18         -4.8280    -0.4210     0.2940 c3         1 BL4      -0.054800
     23 HO1         -1.1760    -1.1960    -2.0370 ho         1 BL4       0.462000
     24 H2           0.1070    -2.5350     1.7020 hc         1 BL4       0.082200
     25 H2A         -0.0970    -3.6690     0.3590 hc         1 BL4       0.082200
     26 H1           2.4130    -2.7510     0.8540 h1         1 BL4       0.062200
     27 H1A          1.8510    -2.6950    -0.8390 h1         1 BL4       0.062200
     28 H17          3.8650    -1.2560    -1.2240 ha         1 BL4       0.131500
     29 H16          5.9220     0.1370    -1.1960 ha         1 BL4       0.113000
     30 H15          6.0380     2.1620     0.2550 ha         1 BL4       0.115000
     31 H14          4.0900     2.7810     1.6850 ha         1 BL4       0.113000
     32 H13          2.0360     1.3780     1.6610 ha         1 BL4       0.131500
     33 H9          -0.9760     3.1780    -1.0180 ha         1 BL4       0.132000
     34 H8          -3.3840     3.7770    -1.2050 ha         1 BL4       0.117000
     35 H7          -5.1240     2.1220    -0.5940 ha         1 BL4       0.118000
     36 H18         -4.9080    -0.5660     1.3780 hc         1 BL4       0.053033
     37 H18A        -5.8040    -0.0710    -0.0610 hc         1 BL4       0.053033
     38 H18B        -4.6500    -1.3990    -0.1690 hc         1 BL4       0.053033
@<TRIPOS>BOND
     1     1     2 2   
     2     2     3 1   
     3     2    17 1   
     4     3     4 1   
     5     3     5 1   
     6     3    14 1   
     7     4    23 1   
     8     5     6 1   
     9     5    24 1   
    10     5    25 1   
    11     6     7 1   
    12     6    26 1   
    13     6    27 1   
    14     7     8 1   
    15     7    14 1   
    16     8     9 ar  
    17     8    13 ar  
    18     9    10 ar  
    19     9    28 1   
    20    10    11 ar  
    21    10    29 1   
    22    11    12 ar  
    23    11    30 1   
    24    12    13 ar  
    25    12    31 1   
    26    13    32 1   
    27    14    15 2   
    28    15    16 1   
    29    16    17 ar  
    30    16    18 ar  
    31    17    21 ar  
    32    18    19 ar  
    33    18    33 1   
    34    19    20 ar  
    35    19    34 1   
    36    20    21 ar  
    37    20    35 1   
    38    21    22 1   
    39    22    36 1   
    40    22    37 1   
    41    22    38 1   
@<TRIPOS>SUBSTRUCTURE
     1 BL4         1 TEMP              0 ****  ****    0 ROOT
