@<TRIPOS>MOLECULE
BL5
  112   113     1     0     0
SMALL
bcc


@<TRIPOS>ATOM
      1 C5          -4.4550    -0.6050    -3.6280 ca         1 BL5      -0.166500
      2 C4          -4.5370    -0.7340    -5.0090 ca         1 BL5      -0.103000
      3 C3          -5.0230    -1.8900    -5.5990 ca         1 BL5      -0.160000
      4 C2          -5.4360    -2.9370    -4.7850 ca         1 BL5      -0.103000
      5 C1          -5.3610    -2.8250    -3.4080 ca         1 BL5      -0.166500
      6 C6          -4.8700    -1.6590    -2.8130 ca         1 BL5       0.073100
      7 N7          -4.8270    -1.6410    -1.4150 ns         1 BL5      -0.463100
      8 C8          -4.4170    -0.6580    -0.5780 c          1 BL5       0.662100
      9 O9          -3.9840     0.4200    -0.9330 o          1 BL5      -0.583600
     10 C10         -4.6070    -0.9990     0.9030 c3         1 BL5       0.035200
     11 C11         -5.9770    -0.5050     1.3710 c3         1 BL5      -0.084900
     12 C12         -6.3030    -0.9020     2.8060 c3         1 BL5      -0.075900
     13 C13         -7.7060    -0.4740     3.2180 c3         1 BL5      -0.080400
     14 C14         -8.0290    -0.8450     4.6570 c3         1 BL5       0.149800
     15 N15         -9.3800    -0.4350     5.0140 n8         1 BL5      -0.884300
     16 N16         -3.5590    -0.3990     1.6820 ns         1 BL5      -0.563400
     17 C17         -2.2740    -0.7540     1.5060 c          1 BL5       0.676600
     18 O18         -1.9560    -1.6310     0.7140 o          1 BL5      -0.611600
     19 C19         -1.2590    -0.0330     2.3680 c3         1 BL5      -0.129200
     20 C20         -0.7600    -1.0180     3.4360 c3         1 BL5      -0.068400
     21 C21          0.2410    -0.4430     4.4280 c3         1 BL5      -0.075400
     22 C22          0.6540    -1.4680     5.4770 c3         1 BL5      -0.075400
     23 C23          1.6630    -0.9150     6.4740 c3         1 BL5      -0.088100
     24 C24         -0.1330     0.5170     1.4820 c3         1 BL5       0.140800
     25 N25          0.4410     1.7110     2.0720 n7         1 BL5      -0.579500
     26 N26          1.5380     2.1640     1.3240 n7         1 BL5      -0.579500
     27 C27          1.2020     2.9920     0.1770 c3         1 BL5       0.140800
     28 C32          2.4340     3.1620    -0.7040 c3         1 BL5      -0.129200
     29 C31          2.1630     4.0110    -1.9530 c3         1 BL5      -0.068400
     30 C30          1.8890     5.4810    -1.6570 c3         1 BL5      -0.075400
     31 C29          1.6230     6.2900    -2.9210 c3         1 BL5      -0.075400
     32 C28          1.3590     7.7610    -2.6330 c3         1 BL5      -0.088100
     33 C34          2.9020     1.7840    -1.1290 c          1 BL5       0.676600
     34 O33          2.1740     1.0200    -1.7530 o          1 BL5      -0.611600
     35 N35          4.1730     1.4750    -0.8200 ns         1 BL5      -0.563400
     36 C41          4.8260     0.2500    -1.2360 c3         1 BL5       0.035200
     37 C40          6.2980     0.4970    -1.5330 c3         1 BL5      -0.084900
     38 C39          6.5090     1.4900    -2.6700 c3         1 BL5      -0.075900
     39 C38          7.9810     1.6610    -3.0210 c3         1 BL5      -0.080400
     40 C37          8.2040     2.6790    -4.1290 c3         1 BL5       0.149800
     41 N36          9.6200     2.7990    -4.4500 n8         1 BL5      -0.884300
     42 C43          4.6260    -0.8310    -0.1640 c          1 BL5       0.662100
     43 O42          5.5200    -1.1760     0.5870 o          1 BL5      -0.583600
     44 N44          3.3690    -1.3350    -0.1450 ns         1 BL5      -0.463100
     45 C45          2.8130    -2.3070     0.6930 ca         1 BL5       0.073100
     46 C46          1.4780    -2.6480     0.4570 ca         1 BL5      -0.166500
     47 C47          0.8450    -3.6050     1.2290 ca         1 BL5      -0.103000
     48 C48          1.5280    -4.2450     2.2550 ca         1 BL5      -0.160000
     49 C49          2.8500    -3.9030     2.4950 ca         1 BL5      -0.103000
     50 C50          3.5000    -2.9440     1.7290 ca         1 BL5      -0.166500
     51 H5          -4.0690     0.3060    -3.2030 ha         1 BL5       0.148250
     52 H4          -4.2100     0.0930    -5.6270 ha         1 BL5       0.131750
     53 H3          -5.0800    -1.9760    -6.6760 ha         1 BL5       0.129500
     54 H2          -5.8200    -3.8500    -5.2210 ha         1 BL5       0.131750
     55 H1          -5.6880    -3.6490    -2.7850 ha         1 BL5       0.148250
     56 HN7         -5.1460    -2.4920    -0.9760 hn         1 BL5       0.331000
     57 H10         -4.5680    -2.0860     1.0330 h1         1 BL5       0.079200
     58 H111        -6.0290     0.5830     1.2570 hc         1 BL5       0.060950
     59 H112        -6.7360    -0.9220     0.7030 hc         1 BL5       0.060950
     60 H121        -6.2060    -1.9880     2.9090 hc         1 BL5       0.040700
     61 H122        -5.5760    -0.4620     3.4950 hc         1 BL5       0.040700
     62 H131        -7.8060     0.6100     3.0940 hc         1 BL5       0.048450
     63 H132        -8.4450    -0.9330     2.5550 hc         1 BL5       0.048450
     64 H141        -7.9620    -1.9310     4.7690 h1         1 BL5       0.026450
     65 H142        -7.2540    -0.4220     5.3140 h1         1 BL5       0.026450
     66 H151        -9.5720    -0.7080     5.9690 hn         1 BL5       0.337050
     67 H152        -9.4330     0.5770     5.0070 hn         1 BL5       0.337050
     68 H16         -3.7750     0.4030     2.2520 hn         1 BL5       0.322000
     69 H19         -1.7530     0.8060     2.8730 hc         1 BL5       0.049200
     70 H201        -0.3100    -1.8750     2.9290 hc         1 BL5       0.051950
     71 H202        -1.6250    -1.4010     3.9900 hc         1 BL5       0.051950
     72 H211        -0.1880     0.4350     4.9230 hc         1 BL5       0.042700
     73 H212         1.1270    -0.0870     3.8980 hc         1 BL5       0.042700
     74 H221         1.0770    -2.3440     4.9760 hc         1 BL5       0.037950
     75 H222        -0.2340    -1.8230     6.0100 hc         1 BL5       0.037950
     76 H231         2.5770    -0.5960     5.9700 hc         1 BL5       0.031700
     77 H232         1.2610    -0.0500     7.0050 hc         1 BL5       0.031700
     78 H233         1.9410    -1.6600     7.2210 hc         1 BL5       0.031700
     79 H241         0.6590    -0.2260     1.3900 h1         1 BL5       0.057700
     80 H242        -0.5100     0.6950     0.4640 h1         1 BL5       0.057700
     81 H25         -0.2760     2.4330     2.1400 hn         1 BL5       0.348300
     82 H26          2.1450     2.6770     1.9490 hn         1 BL5       0.348300
     83 H271         0.4280     2.4870    -0.4050 h1         1 BL5       0.057700
     84 H272         0.8010     3.9730     0.4650 h1         1 BL5       0.057700
     85 H32          3.2220     3.6510    -0.1190 hc         1 BL5       0.049200
     86 H311         3.0280     3.9460    -2.6200 hc         1 BL5       0.051950
     87 H312         1.3200     3.5800    -2.5000 hc         1 BL5       0.051950
     88 H301         1.0320     5.5810    -0.9850 hc         1 BL5       0.042700
     89 H302         2.7460     5.9090    -1.1250 hc         1 BL5       0.042700
     90 H291         2.4770     6.1940    -3.5990 hc         1 BL5       0.037950
     91 H292         0.7660     5.8600    -3.4490 hc         1 BL5       0.037950
     92 H281         1.1430     8.3150    -3.5470 hc         1 BL5       0.031700
     93 H282         0.5050     7.8840    -1.9640 hc         1 BL5       0.031700
     94 H283         2.2200     8.2320    -2.1570 hc         1 BL5       0.031700
     95 H35          4.7030     2.1150    -0.2490 hn         1 BL5       0.322000
     96 H41          4.3370    -0.0840    -2.1550 h1         1 BL5       0.079200
     97 H401         6.8100     0.8460    -0.6320 hc         1 BL5       0.060950
     98 H402         6.7580    -0.4580    -1.7980 hc         1 BL5       0.060950
     99 H391         5.9610     1.1510    -3.5560 hc         1 BL5       0.040700
    100 H392         6.0860     2.4620    -2.4020 hc         1 BL5       0.040700
    101 H381         8.5320     1.9760    -2.1270 hc         1 BL5       0.048450
    102 H382         8.4060     0.7000    -3.3250 hc         1 BL5       0.048450
    103 H371         7.6780     2.3470    -5.0290 h1         1 BL5       0.026450
    104 H372         7.7380     3.6300    -3.8340 h1         1 BL5       0.026450
    105 H361         9.7400     3.4650    -5.2020 hn         1 BL5       0.337050
    106 H362        10.1090     3.1960    -3.6560 hn         1 BL5       0.337050
    107 H44          2.7260    -0.9270    -0.8150 hn         1 BL5       0.331000
    108 H46          0.9240    -2.1510    -0.3310 ha         1 BL5       0.148250
    109 H47         -0.1940    -3.8330     1.0340 ha         1 BL5       0.131750
    110 H48          1.0330    -4.9920     2.8610 ha         1 BL5       0.129500
    111 H49          3.3970    -4.3870     3.2940 ha         1 BL5       0.131750
    112 H50          4.5270    -2.7020     1.9440 ha         1 BL5       0.148250
@<TRIPOS>BOND
     1     1     2 ar  
     2     1     6 ar  
     3     1    51 1   
     4     2     3 ar  
     5     2    52 1   
     6     3     4 ar  
     7     3    53 1   
     8     4     5 ar  
     9     4    54 1   
    10     5     6 ar  
    11     5    55 1   
    12     6     7 1   
    13     7     8 1   
    14     7    56 1   
    15     8     9 2   
    16     8    10 1   
    17    10    11 1   
    18    10    16 1   
    19    10    57 1   
    20    11    12 1   
    21    11    58 1   
    22    11    59 1   
    23    12    13 1   
    24    12    60 1   
    25    12    61 1   
    26    13    14 1   
    27    13    62 1   
    28    13    63 1   
    29    14    15 1   
    30    14    64 1   
    31    14    65 1   
    32    15    66 1   
    33    15    67 1   
    34    16    17 1   
    35    16    68 1   
    36    17    18 2   
    37    17    19 1   
    38    19    20 1   
    39    19    24 1   
    40    19    69 1   
    41    20    21 1   
    42    20    70 1   
    43    20    71 1   
    44    21    22 1   
    45    21    72 1   
    46    21    73 1   
    47    22    23 1   
    48    22    74 1   
    49    22    75 1   
    50    23    76 1   
    51    23    77 1   
    52    23    78 1   
    53    24    25 1   
    54    24    79 1   
    55    24    80 1   
    56    25    26 1   
    57    25    81 1   
    58    26    27 1   
    59    26    82 1   
    60    27    28 1   
    61    27    83 1   
    62    27    84 1   
    63    28    29 1   
    64    28    33 1   
    65    28    85 1   
    66    29    30 1   
    67    29    86 1   
    68    29    87 1   
    69    30    31 1   
    70    30    88 1   
    71    30    89 1   
    72    31    32 1   
    73    31    90 1   
    74    31    91 1   
    75    32    92 1   
    76    32    93 1   
    77    32    94 1   
    78    33    34 2   
    79    33    35 1   
    80    35    36 1   
    81    35    95 1   
    82    36    37 1   
    83    36    42 1   
    84    36    96 1   
    85    37    38 1   
    86    37    97 1   
    87    37    98 1   
    88    38    39 1   
    89    38    99 1   
    90    38   100 1   
    91    39    40 1   
    92    39   101 1   
    93    39   102 1   
    94    40    41 1   
    95    40   103 1   
    96    40   104 1   
    97    41   105 1   
    98    41   106 1   
    99    42    43 2   
   100    42    44 1   
   101    44    45 1   
   102    44   107 1   
   103    45    46 ar  
   104    45    50 ar  
   105    46    47 ar  
   106    46   108 1   
   107    47    48 ar  
   108    47   109 1   
   109    48    49 ar  
   110    48   110 1   
   111    49    50 ar  
   112    49   111 1   
   113    50   112 1   
@<TRIPOS>SUBSTRUCTURE
     1 BL5         1 TEMP              0 ****  ****    0 ROOT
