@<TRIPOS>MOLECULE
BL5
  112   113     1     0     0
SMALL
No Charge or Current Charge


@<TRIPOS>ATOM
      1 C5          -6.7100     0.5370    -3.7430 ca         1 BL5      -0.148500
      2 C4          -7.4510     0.7870    -4.9120 ca         1 BL5      -0.085000
      3 C3          -7.8740    -0.2800    -5.7210 ca         1 BL5      -0.142000
      4 C2          -7.5570    -1.5990    -5.3610 ca         1 BL5      -0.085000
      5 C1          -6.8160    -1.8480    -4.1920 ca         1 BL5      -0.148500
      6 C6          -6.3830    -0.7870    -3.3730 ca         1 BL5      -0.019500
      7 N7          -5.6400    -1.1200    -2.2060 ns         1 BL5      -0.137000
      8 C8          -5.0430    -0.3440    -1.2180 c          1 BL5       0.595100
      9 O9          -5.0550     0.8840    -1.2060 o          1 BL5      -0.583600
     10 C10         -4.3340    -1.1770    -0.1070 c3         1 BL5       0.035200
     11 C11         -5.3650    -1.9140     0.7950 c3         1 BL5      -0.084900
     12 C12         -4.7400    -2.8350     1.8710 c3         1 BL5      -0.075900
     13 C13         -5.7950    -3.6110     2.6900 c3         1 BL5      -0.080400
     14 C14         -5.1660    -4.5210     3.7650 c3         1 BL5       0.149800
     15 N15         -6.1960    -5.2510     4.5260 n8         1 BL5      -0.994700
     16 N16         -3.4430    -0.3090     0.7000 ns         1 BL5      -0.496400
     17 C17         -2.1960    -0.6640     1.1670 c          1 BL5       0.609600
     18 O18         -1.6920    -1.7490     0.9120 o          1 BL5      -0.611600
     19 C19         -1.4930     0.4010     2.0260 c3         1 BL5      -0.129200
     20 C20         -1.3140    -0.1380     3.4770 c3         1 BL5      -0.068400
     21 C21         -0.8660     0.9050     4.5270 c3         1 BL5      -0.075400
     22 C22         -0.9080     0.3570     5.9710 c3         1 BL5      -0.075400
     23 C23         -0.4010     1.3700     7.0150 c3         1 BL5      -0.088100
     24 C24         -0.1830     0.8220     1.3150 c3         1 BL5       0.140800
     25 N25          0.3000     2.1480     1.7650 n7         1 BL5      -0.634700
     26 N26          1.5520     2.5360     1.1280 n7         1 BL5      -0.634700
     27 C27          1.3760     3.3110    -0.1220 c3         1 BL5       0.140800
     28 C32          2.6620     3.2330    -0.9740 c3         1 BL5      -0.129200
     29 C31          2.6460     4.1700    -2.2150 c3         1 BL5      -0.068400
     30 C30          2.6760     5.6800    -1.8820 c3         1 BL5      -0.075400
     31 C29          2.7460     6.5720    -3.1410 c3         1 BL5      -0.075400
     32 C28          2.7750     8.0770    -2.8140 c3         1 BL5      -0.088100
     33 C34          2.8940     1.7740    -1.4060 c          1 BL5       0.609600
     34 O33          2.1340     1.1720    -2.1530 o          1 BL5      -0.611600
     35 N35          4.0300     1.1830    -0.8930 ns         1 BL5      -0.496400
     36 C41          4.4690    -0.2020    -1.1950 c3         1 BL5       0.035200
     37 C40          5.9890    -0.2340    -1.5010 c3         1 BL5      -0.084900
     38 C39          6.4040     0.6470    -2.7060 c3         1 BL5      -0.075900
     39 C38          7.9130     0.5560    -3.0290 c3         1 BL5      -0.080400
     40 C37          8.3210     1.4350    -4.2290 c3         1 BL5       0.149800
     41 N36          9.7630     1.3240    -4.5150 n8         1 BL5      -0.994700
     42 C43          4.0740    -1.2120    -0.0700 c          1 BL5       0.595100
     43 O42          4.3160    -2.4100    -0.1790 o          1 BL5      -0.583600
     44 N44          3.4640    -0.6570     1.0500 ns         1 BL5      -0.137000
     45 C45          2.9650    -1.2410     2.2450 ca         1 BL5      -0.019500
     46 C46          2.7680    -0.4010     3.3570 ca         1 BL5      -0.148500
     47 C47          2.2830    -0.9180     4.5690 ca         1 BL5      -0.085000
     48 C48          1.9720    -2.2830     4.6750 ca         1 BL5      -0.142000
     49 C49          2.1470    -3.1280     3.5670 ca         1 BL5      -0.085000
     50 C50          2.6430    -2.6120     2.3570 ca         1 BL5      -0.148500
     51 H5          -6.4040     1.3870    -3.1420 ha         1 BL5       0.130250
     52 H4          -7.6980     1.8090    -5.1900 ha         1 BL5       0.113750
     53 H3          -8.4470    -0.0850    -6.6250 ha         1 BL5       0.111500
     54 H2          -7.8840    -2.4270    -5.9860 ha         1 BL5       0.113750
     55 H1          -6.5770    -2.8760    -3.9250 ha         1 BL5       0.130250
     56 HN7         -5.5270    -2.1160    -2.0700 hn         1 BL5       0.164500
     57 H10         -3.7230    -1.9280    -0.6250 h1         1 BL5       0.079200
     58 H111        -6.0050    -1.1700     1.2880 hc         1 BL5       0.060950
     59 H112        -6.0240    -2.5210     0.1620 hc         1 BL5       0.060950
     60 H121        -4.0640    -3.5500     1.3860 hc         1 BL5       0.040700
     61 H122        -4.1340    -2.2350     2.5610 hc         1 BL5       0.040700
     62 H131        -6.4740    -2.8960     3.1720 hc         1 BL5       0.048450
     63 H132        -6.4010    -4.2230     2.0090 hc         1 BL5       0.048450
     64 H141        -4.4980    -5.2510     3.2880 h1         1 BL5       0.026450
     65 H142        -4.5750    -3.9140     4.4650 h1         1 BL5       0.026450
     66 H151        -5.7400    -5.7950     5.2690 hn         1 BL5       0.392250
     67 H152        -6.7720    -4.5750     5.0420 hn         1 BL5       0.392250
     68 H16         -3.7670     0.6240     0.9300 hn         1 BL5       0.322000
     69 H19         -2.1550     1.2750     2.0720 hc         1 BL5       0.049200
     70 H201        -0.5990    -0.9710     3.4700 hc         1 BL5       0.051950
     71 H202        -2.2730    -0.5590     3.8040 hc         1 BL5       0.051950
     72 H211        -1.5120     1.7890     4.4610 hc         1 BL5       0.042700
     73 H212         0.1560     1.2310     4.3040 hc         1 BL5       0.042700
     74 H221        -0.3030    -0.5550     6.0360 hc         1 BL5       0.037950
     75 H222        -1.9380     0.0730     6.2220 hc         1 BL5       0.037950
     76 H231         0.6410     1.6460     6.8130 hc         1 BL5       0.031700
     77 H232        -1.0110     2.2810     7.0010 hc         1 BL5       0.031700
     78 H233        -0.4520     0.9380     8.0220 hc         1 BL5       0.031700
     79 H241         0.5800     0.0490     1.4790 h1         1 BL5       0.057700
     80 H242        -0.3740     0.8580     0.2330 h1         1 BL5       0.057700
     81 H25         -0.4420     2.8650     1.7020 hn         1 BL5       0.403500
     82 H26          2.2230     2.9950     1.7670 hn         1 BL5       0.403500
     83 H271         0.5420     2.9130    -0.7180 h1         1 BL5       0.057700
     84 H272         1.1380     4.3550     0.1180 h1         1 BL5       0.057700
     85 H32          3.5030     3.5420    -0.3400 hc         1 BL5       0.049200
     86 H311         3.5200     3.9370    -2.8370 hc         1 BL5       0.051950
     87 H312         1.7610     3.9500    -2.8270 hc         1 BL5       0.051950
     88 H301         1.7810     5.9520    -1.3090 hc         1 BL5       0.042700
     89 H302         3.5430     5.8920    -1.2430 hc         1 BL5       0.042700
     90 H291         3.6430     6.3160    -3.7190 hc         1 BL5       0.037950
     91 H292         1.8810     6.3630    -3.7830 hc         1 BL5       0.037950
     92 H281         2.8250     8.6680    -3.7360 hc         1 BL5       0.031700
     93 H282         1.8720     8.3730    -2.2660 hc         1 BL5       0.031700
     94 H283         3.6490     8.3250    -2.2000 hc         1 BL5       0.031700
     95 H35          4.6180     1.7670    -0.3090 hn         1 BL5       0.322000
     96 H41          3.9420    -0.5450    -2.0940 h1         1 BL5       0.079200
     97 H401         6.5450     0.0820    -0.6100 hc         1 BL5       0.060950
     98 H402         6.2880    -1.2690    -1.7070 hc         1 BL5       0.060950
     99 H391         5.8290     0.3420    -3.5890 hc         1 BL5       0.040700
    100 H392         6.1480     1.6940    -2.5040 hc         1 BL5       0.040700
    101 H381         8.4880     0.8600    -2.1450 hc         1 BL5       0.048450
    102 H382         8.1730    -0.4880    -3.2410 hc         1 BL5       0.048450
    103 H371         7.7610     1.1240    -5.1220 h1         1 BL5       0.026450
    104 H372         8.0830     2.4870    -4.0170 h1         1 BL5       0.026450
    105 H361        10.0030     1.9690    -5.2780 hn         1 BL5       0.392250
    106 H362        10.2910     1.6930    -3.7140 hn         1 BL5       0.392250
    107 H44          3.3450     0.3470     1.0030 hn         1 BL5       0.164500
    108 H46          2.9960     0.6600     3.2840 ha         1 BL5       0.130250
    109 H47          2.1460    -0.2600     5.4240 ha         1 BL5       0.113750
    110 H48          1.5910    -2.6830     5.6120 ha         1 BL5       0.111500
    111 H49          1.8980    -4.1840     3.6460 ha         1 BL5       0.113750
    112 H50          2.7550    -3.2860     1.5130 ha         1 BL5       0.130250
@<TRIPOS>BOND
     1     1     2 ar  
     2     1     6 ar  
     3     1    51 1   
     4     2     3 ar  
     5     2    52 1   
     6     3     4 ar  
     7     3    53 1   
     8     4     5 ar  
     9     4    54 1   
    10     5     6 ar  
    11     5    55 1   
    12     6     7 1   
    13     7     8 1   
    14     7    56 1   
    15     8     9 2   
    16     8    10 1   
    17    10    11 1   
    18    10    16 1   
    19    10    57 1   
    20    11    12 1   
    21    11    58 1   
    22    11    59 1   
    23    12    13 1   
    24    12    60 1   
    25    12    61 1   
    26    13    14 1   
    27    13    62 1   
    28    13    63 1   
    29    14    15 1   
    30    14    64 1   
    31    14    65 1   
    32    15    66 1   
    33    15    67 1   
    34    16    17 1   
    35    16    68 1   
    36    17    18 2   
    37    17    19 1   
    38    19    20 1   
    39    19    24 1   
    40    19    69 1   
    41    20    21 1   
    42    20    70 1   
    43    20    71 1   
    44    21    22 1   
    45    21    72 1   
    46    21    73 1   
    47    22    23 1   
    48    22    74 1   
    49    22    75 1   
    50    23    76 1   
    51    23    77 1   
    52    23    78 1   
    53    24    25 1   
    54    24    79 1   
    55    24    80 1   
    56    25    26 1   
    57    25    81 1   
    58    26    27 1   
    59    26    82 1   
    60    27    28 1   
    61    27    83 1   
    62    27    84 1   
    63    28    29 1   
    64    28    33 1   
    65    28    85 1   
    66    29    30 1   
    67    29    86 1   
    68    29    87 1   
    69    30    31 1   
    70    30    88 1   
    71    30    89 1   
    72    31    32 1   
    73    31    90 1   
    74    31    91 1   
    75    32    92 1   
    76    32    93 1   
    77    32    94 1   
    78    33    34 2   
    79    33    35 1   
    80    35    36 1   
    81    35    95 1   
    82    36    37 1   
    83    36    42 1   
    84    36    96 1   
    85    37    38 1   
    86    37    97 1   
    87    37    98 1   
    88    38    39 1   
    89    38    99 1   
    90    38   100 1   
    91    39    40 1   
    92    39   101 1   
    93    39   102 1   
    94    40    41 1   
    95    40   103 1   
    96    40   104 1   
    97    41   105 1   
    98    41   106 1   
    99    42    43 2   
   100    42    44 1   
   101    44    45 1   
   102    44   107 1   
   103    45    46 ar  
   104    45    50 ar  
   105    46    47 ar  
   106    46   108 1   
   107    47    48 ar  
   108    47   109 1   
   109    48    49 ar  
   110    48   110 1   
   111    49    50 ar  
   112    49   111 1   
   113    50   112 1   
@<TRIPOS>SUBSTRUCTURE
     1 BL5         1 TEMP              0 ****  ****    0 ROOT
