@<TRIPOS>MOLECULE
BL6
   38    41     1     0     0
SMALL
No Charge or Current Charge


@<TRIPOS>ATOM
      1 C5           2.3330    -0.4550    -0.2830 ca         1 BL6      -0.250600
      2 C4           1.6490    -1.7530    -0.6260 c          1 BL6       0.579700
      3 C3           0.2970    -1.8720     0.1390 c5         1 BL6      -0.007300
      4 C2          -0.6890    -2.8400    -0.5800 c5         1 BL6      -0.073400
      5 C1          -2.0480    -2.2360    -0.1270 c5         1 BL6       0.218800
      6 C6           3.7390    -0.3570    -0.3290 ca         1 BL6      -0.028000
      7 C8           3.6120     1.9860     0.3410 ca         1 BL6      -0.030300
      8 C10          1.5720     0.6770     0.0640 ca         1 BL6       0.208400
      9 C11         -0.4210    -0.5360     0.0090 c2         1 BL6       0.637200
     10 C12         -2.7520     0.2190    -0.2300 ca         1 BL6       0.301000
     11 C13         -3.8790     0.1150     0.6080 ca         1 BL6      -0.140000
     12 C14         -4.8820     1.1010     0.5850 ca         1 BL6      -0.089000
     13 C17         -2.6520     1.3180    -1.1040 ca         1 BL6      -0.140000
     14 O2           2.1380    -2.5810    -1.3880 o          1 BL6      -0.492100
     15 O1           0.5200    -2.2900     1.5220 oh         1 BL6      -0.634000
     16 N1          -1.7600    -0.7810    -0.2140 nh         1 BL6      -0.744400
     17 C16         -3.6520     2.3060    -1.1320 ca         1 BL6      -0.089000
     18 C15         -4.7670     2.1980    -0.2850 ca         1 BL6      -0.130000
     19 N2           0.1720     0.6110     0.0460 ne         1 BL6      -0.661100
     20 C9           2.2090     1.8890     0.3720 ca         1 BL6      -0.116000
     21 C18          4.3000     3.2990     0.6810 c3         1 BL6      -0.054800
     22 C7           4.3720     0.8570    -0.0120 ca         1 BL6      -0.145000
     23 H2          -0.5940    -2.7860    -1.6710 hc         1 BL6       0.082200
     24 H2A         -0.5680    -3.8880    -0.2860 hc         1 BL6       0.082200
     25 H1          -2.8820    -2.5460    -0.7720 h1         1 BL6       0.062700
     26 H1A         -2.2770    -2.5320     0.9060 h1         1 BL6       0.062700
     27 H6           4.3430    -1.2210    -0.6030 ha         1 BL6       0.130000
     28 H13         -3.9740    -0.7270     1.2870 ha         1 BL6       0.131500
     29 H14         -5.7460     1.0140     1.2410 ha         1 BL6       0.113500
     30 H17         -1.7970     1.4020    -1.7690 ha         1 BL6       0.131500
     31 HO1          0.9880    -1.5590     1.9880 ho         1 BL6       0.462000
     32 H16         -3.5640     3.1530    -1.8100 ha         1 BL6       0.113500
     33 H15         -5.5430     2.9610    -0.3040 ha         1 BL6       0.115000
     34 H9           1.6090     2.7570     0.6310 ha         1 BL6       0.130000
     35 H18          4.5150     3.3600     1.7540 hc         1 BL6       0.047367
     36 H18A         5.2480     3.4060     0.1410 hc         1 BL6       0.047367
     37 H18B         3.6730     4.1590     0.4160 hc         1 BL6       0.047367
     38 H7           5.4580     0.9180    -0.0430 ha         1 BL6       0.119000
@<TRIPOS>BOND
     1     1     2 1   
     2     1     6 ar  
     3     1     8 ar  
     4     2     3 1   
     5     2    14 2   
     6     3     4 1   
     7     3     9 1   
     8     3    15 1   
     9     4     5 1   
    10     4    23 1   
    11     4    24 1   
    12     5    16 1   
    13     5    25 1   
    14     5    26 1   
    15     6    22 ar  
    16     6    27 1   
    17     7    20 ar  
    18     7    21 1   
    19     7    22 ar  
    20     8    19 1   
    21     8    20 ar  
    22     9    16 1   
    23     9    19 2   
    24    10    11 ar  
    25    10    13 ar  
    26    10    16 1   
    27    11    12 ar  
    28    11    28 1   
    29    12    18 ar  
    30    12    29 1   
    31    13    17 ar  
    32    13    30 1   
    33    15    31 1   
    34    17    18 ar  
    35    17    32 1   
    36    18    33 1   
    37    20    34 1   
    38    21    35 1   
    39    21    36 1   
    40    21    37 1   
    41    22    38 1   
@<TRIPOS>SUBSTRUCTURE
     1 BL6         1 TEMP              0 ****  ****    0 ROOT
