@<TRIPOS>MOLECULE
BL6
   38    41     1     0     0
SMALL
bcc


@<TRIPOS>ATOM
      1 C5           2.3870    -0.5220    -0.1850 ca         1 BL6      -0.250600
      2 C4           1.7190    -1.8150    -0.3340 c          1 BL6       0.579700
      3 C3           0.2900    -1.8240     0.1850 c5         1 BL6      -0.030500
      4 C2          -0.6870    -2.7740    -0.4660 c5         1 BL6      -0.073400
      5 C1          -2.0290    -2.1220    -0.1570 c5         1 BL6       0.218800
      6 C6           3.7790    -0.4200    -0.2420 ca         1 BL6      -0.046000
      7 C8           3.6450     1.9590     0.1160 ca         1 BL6      -0.030300
      8 C10          1.6070     0.6360     0.0070 ca         1 BL6       0.208400
      9 C11         -0.3840    -0.4790    -0.0040 c2         1 BL6       0.637200
     10 C12         -2.7350     0.2720    -0.1440 ca         1 BL6       0.162600
     11 C13         -4.0440    -0.1350     0.1320 ca         1 BL6      -0.158000
     12 C14         -5.0870     0.7780     0.1020 ca         1 BL6      -0.107000
     13 C17         -2.4980     1.6150    -0.4500 ca         1 BL6      -0.158000
     14 O2           2.2500    -2.8260    -0.7390 o          1 BL6      -0.492100
     15 O1           0.3450    -2.1200     1.5690 oh         1 BL6      -0.571800
     16 N1          -1.7140    -0.6890    -0.1220 nh         1 BL6      -0.606000
     17 C16         -3.5520     2.5170    -0.4730 ca         1 BL6      -0.107000
     18 C15         -4.8500     2.1110    -0.1990 ca         1 BL6      -0.148000
     19 N2           0.2190     0.6530    -0.0030 ne         1 BL6      -0.661100
     20 C9           2.2620     1.8610     0.1500 ca         1 BL6      -0.134000
     21 C18          4.3270     3.2810     0.2970 c3         1 BL6      -0.054800
     22 C7           4.4040     0.7980    -0.0860 ca         1 BL6      -0.163000
     23 H2          -0.5220    -2.7990    -1.5440 hc         1 BL6       0.082200
     24 H2A         -0.6110    -3.7900    -0.0840 hc         1 BL6       0.082200
     25 H1          -2.7720    -2.3200    -0.9270 h1         1 BL6       0.062700
     26 H1A         -2.4330    -2.4540     0.8020 h1         1 BL6       0.062700
     27 H6           4.3690    -1.3140    -0.3990 ha         1 BL6       0.148000
     28 H13         -4.2650    -1.1640     0.3810 ha         1 BL6       0.149500
     29 H14         -6.0900     0.4370     0.3210 ha         1 BL6       0.131500
     30 H17         -1.4990     1.9550    -0.6690 ha         1 BL6       0.149500
     31 HO1          0.7980    -1.4150     2.0480 ho         1 BL6       0.423000
     32 H16         -3.3470     3.5520    -0.7130 ha         1 BL6       0.131500
     33 H15         -5.6650     2.8220    -0.2220 ha         1 BL6       0.133000
     34 H9           1.6580     2.7510     0.2830 ha         1 BL6       0.148000
     35 H18          4.8510     3.3130     1.2550 hc         1 BL6       0.047367
     36 H18A         5.0730     3.4490    -0.4800 hc         1 BL6       0.047367
     37 H18B         3.6190     4.1070     0.2770 hc         1 BL6       0.047367
     38 H7           5.4840     0.8610    -0.1220 ha         1 BL6       0.137000
@<TRIPOS>BOND
     1     1     2 1   
     2     1     6 ar  
     3     1     8 ar  
     4     2     3 1   
     5     2    14 2   
     6     3     4 1   
     7     3     9 1   
     8     3    15 1   
     9     4     5 1   
    10     4    23 1   
    11     4    24 1   
    12     5    16 1   
    13     5    25 1   
    14     5    26 1   
    15     6    22 ar  
    16     6    27 1   
    17     7    20 ar  
    18     7    21 1   
    19     7    22 ar  
    20     8    19 1   
    21     8    20 ar  
    22     9    16 1   
    23     9    19 2   
    24    10    11 ar  
    25    10    13 ar  
    26    10    16 1   
    27    11    12 ar  
    28    11    28 1   
    29    12    18 ar  
    30    12    29 1   
    31    13    17 ar  
    32    13    30 1   
    33    15    31 1   
    34    17    18 ar  
    35    17    32 1   
    36    18    33 1   
    37    20    34 1   
    38    21    35 1   
    39    21    36 1   
    40    21    37 1   
    41    22    38 1   
@<TRIPOS>SUBSTRUCTURE
     1 BL6         1 TEMP              0 ****  ****    0 ROOT
