@<TRIPOS>MOLECULE
BL7
   35    38     1     0     0
SMALL
bcc


@<TRIPOS>ATOM
      1 O2          -2.8500    -2.2420     0.7110 o          1 BL7      -0.489100
      2 C4          -2.1720    -1.3310     0.2920 c          1 BL7       0.577700
      3 C3          -0.7520    -1.5560    -0.1990 c5         1 BL7      -0.032500
      4 O1          -0.8270    -1.8510    -1.5840 oh         1 BL7      -0.569800
      5 C2           0.0550    -2.6390     0.4750 c5         1 BL7      -0.074400
      6 C1           1.4910    -2.1880     0.2380 c5         1 BL7       0.218800
      7 N1           1.3960    -0.7300     0.1340 nh         1 BL7      -0.602000
      8 C12          2.5530     0.0630     0.1260 ca         1 BL7       0.165600
      9 C17          3.8020    -0.5650     0.0880 ca         1 BL7      -0.163000
     10 C16          4.9690     0.1820     0.0790 ca         1 BL7      -0.105500
     11 C15          4.9240     1.5670     0.1060 ca         1 BL7      -0.150000
     12 C14          3.6870     2.1930     0.1430 ca         1 BL7      -0.105500
     13 C13          2.5090     1.4620     0.1550 ca         1 BL7      -0.163000
     14 C11          0.1120    -0.3260    -0.0120 c2         1 BL7       0.639200
     15 N2          -0.3180     0.8800    -0.0440 ne         1 BL7      -0.660100
     16 C10         -1.6950     1.0700    -0.0830 ca         1 BL7       0.203400
     17 C5          -2.6440     0.0440     0.1060 ca         1 BL7      -0.244600
     18 C9          -2.1600     2.3760    -0.2490 ca         1 BL7      -0.131000
     19 C8          -3.5140     2.6530    -0.2220 ca         1 BL7      -0.086000
     20 C7          -4.4470     1.6380    -0.0180 ca         1 BL7      -0.159000
     21 C6          -4.0070     0.3420     0.1420 ca         1 BL7      -0.050000
     22 HO1         -1.2000    -1.1020    -2.0630 ho         1 BL7       0.422000
     23 H2          -0.1620    -2.6630     1.5430 hc         1 BL7       0.082200
     24 H2A         -0.1470    -3.6270     0.0670 hc         1 BL7       0.082200
     25 H1           2.1340    -2.4650     1.0730 h1         1 BL7       0.062200
     26 H1A          1.9120    -2.6160    -0.6740 h1         1 BL7       0.062200
     27 H17          3.8900    -1.6410     0.0530 ha         1 BL7       0.150500
     28 H16          5.9200    -0.3330     0.0480 ha         1 BL7       0.131000
     29 H15          5.8350     2.1490     0.0990 ha         1 BL7       0.133000
     30 H14          3.6280     3.2730     0.1650 ha         1 BL7       0.131000
     31 H13          1.5630     1.9750     0.1870 ha         1 BL7       0.150500
     32 H9          -1.4380     3.1700    -0.3860 ha         1 BL7       0.149000
     33 H8          -3.8500     3.6730    -0.3550 ha         1 BL7       0.135000
     34 H7          -5.5030     1.8630     0.0050 ha         1 BL7       0.139000
     35 H6          -4.7180    -0.4580     0.3000 ha         1 BL7       0.148000
@<TRIPOS>BOND
     1     1     2 2   
     2     2     3 1   
     3     2    17 1   
     4     3     4 1   
     5     3     5 1   
     6     3    14 1   
     7     4    22 1   
     8     5     6 1   
     9     5    23 1   
    10     5    24 1   
    11     6     7 1   
    12     6    25 1   
    13     6    26 1   
    14     7     8 1   
    15     7    14 1   
    16     8     9 ar  
    17     8    13 ar  
    18     9    10 ar  
    19     9    27 1   
    20    10    11 ar  
    21    10    28 1   
    22    11    12 ar  
    23    11    29 1   
    24    12    13 ar  
    25    12    30 1   
    26    13    31 1   
    27    14    15 2   
    28    15    16 1   
    29    16    17 ar  
    30    16    18 ar  
    31    17    21 ar  
    32    18    19 ar  
    33    18    32 1   
    34    19    20 ar  
    35    19    33 1   
    36    20    21 ar  
    37    20    34 1   
    38    21    35 1   
@<TRIPOS>SUBSTRUCTURE
     1 BL7         1 TEMP              0 ****  ****    0 ROOT
