@<TRIPOS>MOLECULE
BL7
   35    38     1     0     0
SMALL
No Charge or Current Charge


@<TRIPOS>ATOM
      1 O2          -2.7280    -1.9070     1.4180 o          1 BL7      -0.489100
      2 C4          -2.1020    -1.2330     0.6070 c          1 BL7       0.577700
      3 C3          -0.7630    -1.6200    -0.0910 c5         1 BL7      -0.009300
      4 O1          -1.0110    -2.1250    -1.4400 oh         1 BL7      -0.632000
      5 C2           0.0470    -2.6530     0.7470 c5         1 BL7      -0.074400
      6 C1           1.4920    -2.3000     0.2970 c5         1 BL7       0.218800
      7 N1           1.4250    -0.8170     0.2470 nh         1 BL7      -0.740400
      8 C12          2.5560     0.0220     0.2140 ca         1 BL7       0.304000
      9 C17          3.6740    -0.3230    -0.5690 ca         1 BL7      -0.145000
     10 C16          4.8140     0.5010    -0.5920 ca         1 BL7      -0.087500
     11 C15          4.8440     1.6770     0.1760 ca         1 BL7      -0.132000
     12 C14          3.7380     2.0260     0.9680 ca         1 BL7      -0.087500
     13 C13          2.6010     1.1980     0.9870 ca         1 BL7      -0.145000
     14 C11          0.1440    -0.3980    -0.0490 c2         1 BL7       0.639200
     15 N2          -0.2680     0.8150    -0.2100 ne         1 BL7      -0.660100
     16 C10         -1.6410     1.0860    -0.2880 ca         1 BL7       0.203400
     17 C5          -2.5740     0.1150     0.1270 ca         1 BL7      -0.244600
     18 C9          -2.0810     2.3450    -0.7250 ca         1 BL7      -0.113000
     19 C8          -3.4530     2.6440    -0.7560 ca         1 BL7      -0.068000
     20 C7          -4.3860     1.6830    -0.3350 ca         1 BL7      -0.141000
     21 C6          -3.9510     0.4230     0.1110 ca         1 BL7      -0.032000
     22 HO1         -1.3520    -1.3790    -1.9860 ho         1 BL7       0.461000
     23 H2          -0.0670    -2.4860     1.8250 hc         1 BL7       0.082200
     24 H2A         -0.2230    -3.6940     0.5410 hc         1 BL7       0.082200
     25 H1           2.2530    -2.6700     0.9990 h1         1 BL7       0.062200
     26 H1A          1.7000    -2.7210    -0.6970 h1         1 BL7       0.062200
     27 H17          3.6580    -1.2280    -1.1680 ha         1 BL7       0.132500
     28 H16          5.6710     0.2280    -1.2040 ha         1 BL7       0.113000
     29 H15          5.7250     2.3150     0.1600 ha         1 BL7       0.115000
     30 H14          3.7610     2.9330     1.5680 ha         1 BL7       0.113000
     31 H13          1.7520     1.4670     1.6090 ha         1 BL7       0.132500
     32 H9          -1.3560     3.0940    -1.0340 ha         1 BL7       0.131000
     33 H8          -3.7910     3.6210    -1.0960 ha         1 BL7       0.117000
     34 H7          -5.4490     1.9140    -0.3510 ha         1 BL7       0.121000
     35 H6          -4.6840    -0.3130     0.4360 ha         1 BL7       0.130000
@<TRIPOS>BOND
     1     1     2 2   
     2     2     3 1   
     3     2    17 1   
     4     3     4 1   
     5     3     5 1   
     6     3    14 1   
     7     4    22 1   
     8     5     6 1   
     9     5    23 1   
    10     5    24 1   
    11     6     7 1   
    12     6    25 1   
    13     6    26 1   
    14     7     8 1   
    15     7    14 1   
    16     8     9 ar  
    17     8    13 ar  
    18     9    10 ar  
    19     9    27 1   
    20    10    11 ar  
    21    10    28 1   
    22    11    12 ar  
    23    11    29 1   
    24    12    13 ar  
    25    12    30 1   
    26    13    31 1   
    27    14    15 2   
    28    15    16 1   
    29    16    17 ar  
    30    16    18 ar  
    31    17    21 ar  
    32    18    19 ar  
    33    18    32 1   
    34    19    20 ar  
    35    19    33 1   
    36    20    21 ar  
    37    20    34 1   
    38    21    35 1   
@<TRIPOS>SUBSTRUCTURE
     1 BL7         1 TEMP              0 ****  ****    0 ROOT
