@<TRIPOS>MOLECULE
BL8
   77    80     1     0     0
SMALL
No Charge or Current Charge


@<TRIPOS>ATOM
      1 O2D         -6.9670     1.8830     0.8030 o          1 BL8      -0.738500
      2 CGD         -6.3040     2.8640     0.5010 c          1 BL8       0.721000
      3 O1D         -6.7010     4.0120     0.6240 o          1 BL8      -0.738500
      4 CBD         -4.8660     2.6420     0.0060 c3         1 BL8      -0.204400
      5 CAD         -3.8950     2.6130     1.2100 c3         1 BL8      -0.021200
      6 C3D         -2.4470     2.4750     0.7980 cc         1 BL8      -0.012200
      7 C2D         -1.5110     3.4610     0.6390 cd         1 BL8      -0.288800
      8 CMD         -1.6920     4.9510     0.8050 c3         1 BL8      -0.010900
      9 C1D         -0.3070     2.7870     0.2640 cd         1 BL8       0.504900
     10 CHD          0.9840     3.4110    -0.0430 cf         1 BL8      -0.320600
     11 C4C          2.0680     2.8080    -0.5830 c2         1 BL8       0.051400
     12 C3C          3.4100     3.4380    -0.9390 c5         1 BL8      -0.011300
     13 CAC          3.3050     4.3360    -2.1670 c2         1 BL8      -0.192200
     14 CBC          4.2250     5.2940    -2.3680 c2         1 BL8      -0.325000
     15 C2C          4.3320     2.2140    -1.3050 c5         1 BL8      -0.146700
     16 CMC          5.3640     1.8750    -0.2030 c3         1 BL8      -0.074100
     17 C1C          3.3580     1.0390    -1.5060 c          1 BL8       0.569000
     18 OC           3.4920    -0.0020    -2.1310 o          1 BL8      -0.534000
     19 NC           2.1850     1.4930    -0.9960 ns         1 BL8      -0.399100
     20 C4D         -1.7900     1.2370     0.5130 cc         1 BL8       0.025600
     21 ND          -0.4710     1.4700     0.1930 nc         1 BL8      -0.679300
     22 CHA         -2.3100    -0.0350     0.5320 cf         1 BL8       0.013800
     23 C1A         -1.5970    -1.3130     0.3950 cd         1 BL8      -0.161800
     24 C2A         -2.1030    -2.5790     0.2420 cc         1 BL8      -0.057300
     25 CAA         -3.5580    -2.9960     0.2060 c3         1 BL8      -0.008100
     26 CBA         -4.1580    -2.9530    -1.2190 c3         1 BL8      -0.201400
     27 CGA         -5.6080    -3.4610    -1.1910 c          1 BL8       0.720000
     28 O2A         -6.4980    -2.6530    -0.9780 o          1 BL8      -0.740000
     29 O1A         -5.8020    -4.6590    -1.3340 o          1 BL8      -0.740000
     30 C3A         -1.0130    -3.4830     0.0920 cc         1 BL8      -0.126300
     31 CMA         -1.1860    -4.9710    -0.1030 c3         1 BL8      -0.014800
     32 C4A          0.1610    -2.7740     0.1610 cd         1 BL8      -0.159800
     33 NA          -0.2130    -1.4450     0.3580 na         1 BL8      -0.083000
     34 CHB          1.5330    -3.2800     0.0590 cf         1 BL8      -0.091200
     35 C1B          2.6960    -2.7300     0.5230 cc         1 BL8      -0.026400
     36 C2B          4.0560    -3.1020     0.2470 cc         1 BL8      -0.009200
     37 CMB          4.4450    -4.2480    -0.6510 c3         1 BL8      -0.046900
     38 C3B          4.8770    -2.2210     0.9360 cd         1 BL8      -0.177200
     39 CAB          6.3470    -2.1930     0.9220 cf         1 BL8      -0.139000
     40 CBB          7.1100    -1.7730     1.9570 c2         1 BL8      -0.321000
     41 C4B          4.0290    -1.2580     1.6830 c          1 BL8       0.564200
     42 OB           4.3360    -0.3360     2.4230 o          1 BL8      -0.562000
     43 NB           2.7680    -1.6410     1.3580 ns         1 BL8      -0.406100
     44 H2          -4.7720     1.6650    -0.4830 hc         1 BL8       0.026200
     45 H3          -4.5420     3.4820    -0.6210 hc         1 BL8       0.026200
     46 H4          -4.0230     3.5320     1.7950 hc         1 BL8       0.054700
     47 H5          -4.1730     1.7950     1.8850 hc         1 BL8       0.054700
     48 H6          -1.3400     5.2810     1.7890 hc         1 BL8       0.029033
     49 H7          -1.1330     5.5060     0.0430 hc         1 BL8       0.029033
     50 H8          -2.7440     5.2440     0.7090 hc         1 BL8       0.029033
     51 H9           1.0450     4.4710     0.1900 ha         1 BL8       0.188000
     52 H11          3.8070     3.9990    -0.0830 hc         1 BL8       0.085700
     53 H12          2.4850     4.2050    -2.8780 ha         1 BL8       0.172000
     54 H14          5.0560     5.4520    -1.6790 ha         1 BL8       0.159000
     55 H15          4.1770     5.9550    -3.2350 ha         1 BL8       0.159000
     56 H17          4.9100     2.3480    -2.2250 hc         1 BL8       0.069700
     57 H18          4.8750     1.7330     0.7670 hc         1 BL8       0.041367
     58 H19          5.9130     0.9560    -0.4410 hc         1 BL8       0.041367
     59 H20          6.0980     2.6820    -0.0910 hc         1 BL8       0.041367
     60 H22         -3.3790    -0.0970     0.7260 ha         1 BL8       0.232000
     61 H24         -3.6710    -4.0060     0.6150 hc         1 BL8       0.054700
     62 H25         -4.1470    -2.3470     0.8640 hc         1 BL8       0.054700
     63 H26         -4.1210    -1.9010    -1.5280 hc         1 BL8       0.022200
     64 H27         -3.5320    -3.6140    -1.8310 hc         1 BL8       0.022200
     65 H29         -1.7740    -5.1840    -1.0030 hc         1 BL8       0.034700
     66 H30         -0.2240    -5.4840    -0.2080 hc         1 BL8       0.034700
     67 H31         -1.7030    -5.4190     0.7550 hc         1 BL8       0.034700
     68 H32          0.4150    -0.6510     0.4110 hn         1 BL8       0.381000
     69 H33          1.6620    -4.1780    -0.5460 ha         1 BL8       0.190000
     70 H35          4.2100    -4.0190    -1.6970 hc         1 BL8       0.047033
     71 H36          5.5170    -4.4670    -0.5870 hc         1 BL8       0.047033
     72 H37          3.9080    -5.1630    -0.3730 hc         1 BL8       0.047033
     73 H38          6.8330    -2.5950     0.0300 ha         1 BL8       0.155000
     74 H39          6.6710    -1.4010     2.8820 ha         1 BL8       0.165000
     75 H40          8.1980    -1.8030     1.8970 ha         1 BL8       0.165000
     76 H10          1.3600     0.9110    -1.0610 hn         1 BL8       0.365500
     77 H13          1.9740    -1.1950     1.7970 hn         1 BL8       0.342500
@<TRIPOS>BOND
     1     1     2 1   
     2     2     3 1   
     3     2     4 1   
     4     4     5 1   
     5     4    44 1   
     6     4    45 1   
     7     5     6 1   
     8     5    46 1   
     9     5    47 1   
    10     6     7 2   
    11     6    20 1   
    12     7     8 1   
    13     7     9 1   
    14     8    48 1   
    15     8    49 1   
    16     8    50 1   
    17     9    10 1   
    18     9    21 2   
    19    10    11 2   
    20    10    51 1   
    21    11    12 1   
    22    11    19 1   
    23    12    13 1   
    24    12    15 1   
    25    12    52 1   
    26    13    14 2   
    27    13    53 1   
    28    14    54 1   
    29    14    55 1   
    30    15    16 1   
    31    15    17 1   
    32    15    56 1   
    33    16    57 1   
    34    16    58 1   
    35    16    59 1   
    36    17    18 2   
    37    17    19 1   
    38    19    76 1   
    39    20    21 1   
    40    20    22 2   
    41    22    23 1   
    42    22    60 1   
    43    23    24 2   
    44    23    33 1   
    45    24    25 1   
    46    24    30 1   
    47    25    26 1   
    48    25    61 1   
    49    25    62 1   
    50    26    27 1   
    51    26    63 1   
    52    26    64 1   
    53    27    28 1   
    54    27    29 1   
    55    30    31 1   
    56    30    32 2   
    57    31    65 1   
    58    31    66 1   
    59    31    67 1   
    60    32    33 1   
    61    32    34 1   
    62    33    68 1   
    63    34    35 2   
    64    34    69 1   
    65    35    36 1   
    66    35    43 1   
    67    36    37 1   
    68    36    38 2   
    69    37    70 1   
    70    37    71 1   
    71    37    72 1   
    72    38    39 1   
    73    38    41 1   
    74    39    40 2   
    75    39    73 1   
    76    40    74 1   
    77    40    75 1   
    78    41    42 2   
    79    41    43 1   
    80    43    77 1   
@<TRIPOS>SUBSTRUCTURE
     1 BL8         1 TEMP              0 ****  ****    0 ROOT
