@<TRIPOS>MOLECULE
BL8
   77    80     1     0     0
SMALL
bcc


@<TRIPOS>ATOM
      1 O2D         -6.7520     2.6210    -1.4920 o          1 BL8      -0.843800
      2 CGD         -6.1080     2.8300    -0.4430 c          1 BL8       0.931600
      3 O1D         -6.5660     3.2580     0.6340 o          1 BL8      -0.843800
      4 CBD         -4.5980     2.5380    -0.5160 c3         1 BL8      -0.204400
      5 CAD         -3.8410     2.6660     0.8060 c3         1 BL8      -0.021200
      6 C3D         -2.3780     2.4310     0.6340 cc         1 BL8      -0.012200
      7 C2D         -1.3730     3.3430     0.5570 cd         1 BL8      -0.288800
      8 CMD         -1.4390     4.8270     0.6680 c3         1 BL8      -0.010900
      9 C1D         -0.1560     2.5840     0.3000 cd         1 BL8       0.504900
     10 CHD          1.1370     3.1810     0.1080 cf         1 BL8      -0.270600
     11 C4C          2.1990     2.5640    -0.4490 c2         1 BL8       0.051400
     12 C3C          3.5920     3.1290    -0.6070 c5         1 BL8      -0.011300
     13 CAC          3.6270     4.5770    -0.9690 c2         1 BL8      -0.142200
     14 CBC          4.2020     5.5150    -0.2280 c2         1 BL8      -0.225000
     15 C2C          4.2360     2.2010    -1.6530 c5         1 BL8      -0.146700
     16 CMC          5.7080     1.9150    -1.4350 c3         1 BL8      -0.074100
     17 C1C          3.3570     0.9680    -1.6340 c          1 BL8       0.711500
     18 OC           3.5800    -0.1080    -2.1380 o          1 BL8      -0.609500
     19 NC           2.2070     1.3010    -0.9720 ns         1 BL8      -0.466100
     20 C4D         -1.7490     1.1310     0.4580 cc         1 BL8       0.025600
     21 ND          -0.3880     1.2880     0.2440 nc         1 BL8      -0.679300
     22 CHA         -2.3660    -0.0830     0.5510 cf         1 BL8       0.063800
     23 C1A         -1.7210    -1.3440     0.5140 cd         1 BL8      -0.111100
     24 C2A         -2.2570    -2.6390     0.5310 cc         1 BL8      -0.057300
     25 CAA         -3.7040    -3.0050     0.5530 c3         1 BL8      -0.008100
     26 CBA         -4.2280    -3.3530    -0.8390 c3         1 BL8      -0.201400
     27 CGA         -5.7120    -3.7570    -0.9000 c          1 BL8       0.930600
     28 O2A         -6.4010    -3.5930     0.1270 o          1 BL8      -0.845300
     29 O1A         -6.1090    -4.2070    -1.9950 o          1 BL8      -0.845300
     30 C3A         -1.1760    -3.5310     0.4660 cc         1 BL8      -0.126300
     31 CMA         -1.2660    -5.0200     0.4520 c3         1 BL8      -0.014800
     32 C4A         -0.0000    -2.7670     0.4270 cd         1 BL8      -0.109100
     33 NA          -0.3650    -1.4610     0.4630 na         1 BL8      -0.134100
     34 CHB          1.3510    -3.2210     0.3500 cf         1 BL8      -0.041200
     35 C1B          2.4830    -2.5130     0.5660 cc         1 BL8      -0.026400
     36 C2B          3.8370    -2.9800     0.3210 cc         1 BL8      -0.009200
     37 CMB          4.1320    -4.3220    -0.2440 c3         1 BL8      -0.046900
     38 C3B          4.7040    -1.9810     0.6340 cd         1 BL8      -0.177200
     39 CAB          6.1470    -2.0190     0.5180 cf         1 BL8      -0.089000
     40 CBB          7.0130    -1.0690     0.8810 c2         1 BL8      -0.221000
     41 C4B          3.9130    -0.8340     1.1310 c          1 BL8       0.706700
     42 OB           4.2920     0.2380     1.5670 o          1 BL8      -0.637500
     43 NB           2.5940    -1.2080     1.0210 ns         1 BL8      -0.473100
     44 H2          -4.4550     1.5350    -0.9320 hc         1 BL8       0.026200
     45 H3          -4.1530     3.2160    -1.2530 hc         1 BL8       0.026200
     46 H4          -4.0110     3.6580     1.2240 hc         1 BL8       0.054700
     47 H5          -4.2530     1.9620     1.5340 hc         1 BL8       0.054700
     48 H6          -0.7790     5.2050     1.4520 hc         1 BL8       0.029033
     49 H7          -1.1370     5.3140    -0.2620 hc         1 BL8       0.029033
     50 H8          -2.4480     5.1660     0.9000 hc         1 BL8       0.029033
     51 H9           1.2700     4.2110     0.4110 ha         1 BL8       0.138000
     52 H11          4.1050     2.9820     0.3500 hc         1 BL8       0.085700
     53 H12          3.1510     4.8450    -1.9080 ha         1 BL8       0.122000
     54 H14          4.6840     5.2800     0.7140 ha         1 BL8       0.109000
     55 H15          4.2120     6.5520    -0.5370 ha         1 BL8       0.109000
     56 H17          4.0980     2.6390    -2.6500 hc         1 BL8       0.069700
     57 H18          5.8800     1.4790    -0.4510 hc         1 BL8       0.041367
     58 H19          6.0890     1.2230    -2.1840 hc         1 BL8       0.041367
     59 H20          6.2870     2.8360    -1.5060 hc         1 BL8       0.041367
     60 H22         -3.4410    -0.0990     0.6870 ha         1 BL8       0.182000
     61 H24         -3.8500    -3.8580     1.2220 hc         1 BL8       0.054700
     62 H25         -4.2970    -2.1910     0.9740 hc         1 BL8       0.054700
     63 H26         -4.0800    -2.4940    -1.5040 hc         1 BL8       0.022200
     64 H27         -3.6240    -4.1570    -1.2720 hc         1 BL8       0.022200
     65 H29         -1.5240    -5.4010    -0.5390 hc         1 BL8       0.034700
     66 H30         -0.3310    -5.4920     0.7490 hc         1 BL8       0.034700
     67 H31         -2.0390    -5.3720     1.1370 hc         1 BL8       0.034700
     68 H32          0.2020    -0.6310     0.3470 hn         1 BL8       0.330700
     69 H33          1.4830    -4.2590     0.0740 ha         1 BL8       0.140000
     70 H35          3.8080    -4.3850    -1.2840 hc         1 BL8       0.047033
     71 H36          5.1950    -4.5500    -0.2170 hc         1 BL8       0.047033
     72 H37          3.6100    -5.1080     0.3040 hc         1 BL8       0.047033
     73 H38          6.5510    -2.9310     0.0910 ha         1 BL8       0.105000
     74 H39          6.7080    -0.1310     1.3190 ha         1 BL8       0.115000
     75 H40          8.0740    -1.2240     0.7420 ha         1 BL8       0.115000
     76 H10          1.3920     0.7060    -0.9250 hn         1 BL8       0.365500
     77 H13          1.8830    -0.7240     1.5470 hn         1 BL8       0.342500
@<TRIPOS>BOND
     1     1     2 1   
     2     2     3 1   
     3     2     4 1   
     4     4     5 1   
     5     4    44 1   
     6     4    45 1   
     7     5     6 1   
     8     5    46 1   
     9     5    47 1   
    10     6     7 2   
    11     6    20 1   
    12     7     8 1   
    13     7     9 1   
    14     8    48 1   
    15     8    49 1   
    16     8    50 1   
    17     9    10 1   
    18     9    21 2   
    19    10    11 2   
    20    10    51 1   
    21    11    12 1   
    22    11    19 1   
    23    12    13 1   
    24    12    15 1   
    25    12    52 1   
    26    13    14 2   
    27    13    53 1   
    28    14    54 1   
    29    14    55 1   
    30    15    16 1   
    31    15    17 1   
    32    15    56 1   
    33    16    57 1   
    34    16    58 1   
    35    16    59 1   
    36    17    18 2   
    37    17    19 1   
    38    19    76 1   
    39    20    21 1   
    40    20    22 2   
    41    22    23 1   
    42    22    60 1   
    43    23    24 2   
    44    23    33 1   
    45    24    25 1   
    46    24    30 1   
    47    25    26 1   
    48    25    61 1   
    49    25    62 1   
    50    26    27 1   
    51    26    63 1   
    52    26    64 1   
    53    27    28 1   
    54    27    29 1   
    55    30    31 1   
    56    30    32 2   
    57    31    65 1   
    58    31    66 1   
    59    31    67 1   
    60    32    33 1   
    61    32    34 1   
    62    33    68 1   
    63    34    35 2   
    64    34    69 1   
    65    35    36 1   
    66    35    43 1   
    67    36    37 1   
    68    36    38 2   
    69    37    70 1   
    70    37    71 1   
    71    37    72 1   
    72    38    39 1   
    73    38    41 1   
    74    39    40 2   
    75    39    73 1   
    76    40    74 1   
    77    40    75 1   
    78    41    42 2   
    79    41    43 1   
    80    43    77 1   
@<TRIPOS>SUBSTRUCTURE
     1 BL8         1 TEMP              0 ****  ****    0 ROOT
