@<TRIPOS>MOLECULE
BLA
   75    78     1     0     0
SMALL
No Charge or Current Charge


@<TRIPOS>ATOM
      1 CHA          6.4260    15.0020    29.7050 ce         1 BLA       0.059800
      2 NA           5.6590    16.5020    31.5460 na         1 BLA      -0.077000
      3 C1A          6.0880    15.2600    31.1060 cc         1 BLA      -0.146800
      4 C2A          6.1020    14.4520    32.2170 cd         1 BLA      -0.038300
      5 C3A          5.6820    15.2280    33.3370 cd         1 BLA      -0.139300
      6 C4A          5.4080    16.5060    32.9120 cc         1 BLA      -0.152800
      7 CMA          5.5570    14.7200    34.7550 c3         1 BLA      -0.007800
      8 CAA          6.4850    12.9870    32.2550 c3         1 BLA      -0.005100
      9 CBA          7.9340    12.7260    32.7330 c3         1 BLA      -0.203400
     10 CGA          8.9550    13.3290    31.7520 c          1 BLA       0.708000
     11 O1A          9.2550    12.6740    30.7650 o          1 BLA      -0.730500
     12 O2A          9.4110    14.4370    31.9920 o          1 BLA      -0.730500
     13 CHB          4.9350    17.6670    33.6640 ce         1 BLA      -0.106200
     14 NB           3.9740    19.2310    32.0170 ns         1 BLA      -0.411100
     15 C1B          4.3610    18.8600    33.2760 cd         1 BLA      -0.009400
     16 C2B          4.0670    19.9860    34.1370 cd         1 BLA      -0.008200
     17 C3B          3.5420    20.9850    33.3180 cc         1 BLA      -0.178200
     18 C4B          3.4560    20.4780    31.9350 c          1 BLA       0.562200
     19 CMB          4.2720    20.0430    35.6340 c3         1 BLA      -0.045900
     20 OB           3.0180    21.0160    30.9290 o          1 BLA      -0.550000
     21 CAB          3.0710    22.3380    33.6390 ce         1 BLA      -0.121000
     22 CBB          3.4420    23.0910    34.6970 c2         1 BLA      -0.339000
     23 NC           6.3410    20.2610    29.2280 ns         1 BLA      -0.402100
     24 C1C          6.2730    21.5150    29.7320 c          1 BLA       0.558200
     25 C2C          5.9230    22.3210    28.5520 cc         1 BLA      -0.178400
     26 C3C          5.8170    21.5130    27.4300 cd         1 BLA      -0.020000
     27 C4C          6.0800    20.1700    27.8910 cd         1 BLA       0.038600
     28 CAC          5.4820    21.9760    26.0820 cf         1 BLA      -0.158000
     29 CBC          6.1850    21.6330    24.9780 c2         1 BLA      -0.309000
     30 ND           6.2170    17.2190    28.7350 nd         1 BLA      -0.657300
     31 C1D          6.1940    17.6150    27.4700 cc         1 BLA       0.463900
     32 C2D          6.3470    16.5620    26.5190 cc         1 BLA      -0.301800
     33 C3D          6.4800    15.4080    27.2440 cd         1 BLA       0.009800
     34 C4D          6.3860    15.8460    28.6090 cd         1 BLA       0.008600
     35 CGD          5.5920    11.7890    26.1280 c          1 BLA       0.724000
     36 O1D          5.5540    11.6170    24.9190 o          1 BLA      -0.743500
     37 O2D          5.8760    10.9100    26.9270 o          1 BLA      -0.743500
     38 HHA          6.6150    13.9550    29.4760 ha         1 BLA       0.267000
     39 HA           5.5900    17.3030    30.9270 hn         1 BLA       0.379000
     40 HMA1         4.8300    15.3040    35.3300 hc         1 BLA       0.028033
     41 HMA2         5.2220    13.6770    34.7850 hc         1 BLA       0.028033
     42 HMA3         6.5200    14.7780    35.2750 hc         1 BLA       0.028033
     43 HAA1         5.7980    12.4440    32.9130 hc         1 BLA       0.039700
     44 HAA2         6.3490    12.5320    31.2670 hc         1 BLA       0.039700
     45 HBA1         8.0280    13.1790    33.7270 hc         1 BLA       0.016700
     46 HBA2         8.0260    11.6320    32.7410 hc         1 BLA       0.016700
     47 HHB          5.1160    17.5790    34.7330 ha         1 BLA       0.188000
     48 HB           3.9690    18.6360    31.2000 hn         1 BLA       0.347500
     49 HMB1         3.5000    20.6520    36.1160 hc         1 BLA       0.046367
     50 HMB2         4.2100    19.0520    36.0970 hc         1 BLA       0.046367
     51 HMB3         5.2510    20.4710    35.8810 hc         1 BLA       0.046367
     52 HAB          2.3820    22.7610    32.9030 ha         1 BLA       0.178000
     53 HBB1         4.1610    22.7500    35.4400 ha         1 BLA       0.154500
     54 HBB2         3.0460    24.0980    34.8370 ha         1 BLA       0.154500
     55 HC           6.5830    19.4780    29.8200 hn         1 BLA       0.367500
     56 HMC1         5.7860    24.3100    27.7150 hc         1 BLA       0.039700
     57 HMC2         4.7770    24.0450    29.1490 hc         1 BLA       0.039700
     58 HMC3         6.5320    24.2460    29.3180 hc         1 BLA       0.039700
     59 HAC          4.6710    22.7040    26.0070 ha         1 BLA       0.168000
     60 HBC1         7.0390    20.9570    25.0330 ha         1 BLA       0.164000
     61 HBC2         5.9260    22.0380    23.9990 ha         1 BLA       0.164000
     62 HHD          5.8140    19.1900    26.0850 ha         1 BLA       0.186000
     63 HMD1         6.4440    15.8110    24.4820 hc         1 BLA       0.025367
     64 HMD2         5.4160    17.2300    24.6910 hc         1 BLA       0.025367
     65 HMD3         7.1810    17.4030    24.7160 hc         1 BLA       0.025367
     66 HAD1         7.1170    14.0160    25.7290 hc         1 BLA       0.073700
     67 HAD2         7.3860    13.4570    27.3550 hc         1 BLA       0.073700
     68 HBD1         4.9620    13.1650    27.6980 hc         1 BLA       0.013700
     69 HBD2         4.6880    13.7690    25.9860 hc         1 BLA       0.013700
     70 CMD          6.3480    16.7590    25.0220 c3         1 BLA      -0.006900
     71 CHD          6.0400    19.0250    27.1320 ce         1 BLA      -0.236600
     72 CMC          5.7450    23.8110    28.6900 c3         1 BLA      -0.022900
     73 CAD          6.6670    13.9970    26.7280 c3         1 BLA      -0.034200
     74 OC           6.4730    21.8530    30.8890 o          1 BLA      -0.550000
     75 CBD          5.3370    13.2060    26.6680 c3         1 BLA      -0.193400
@<TRIPOS>BOND
     1     1     3 1   
     2     1    34 2   
     3     1    38 1   
     4     2     3 1   
     5     2     6 1   
     6     2    39 1   
     7     3     4 2   
     8     4     5 1   
     9     4     8 1   
    10     5     6 2   
    11     5     7 1   
    12     6    13 1   
    13     7    40 1   
    14     7    41 1   
    15     7    42 1   
    16     8     9 1   
    17     8    43 1   
    18     8    44 1   
    19     9    10 1   
    20     9    45 1   
    21     9    46 1   
    22    10    11 1   
    23    10    12 1   
    24    13    15 2   
    25    13    47 1   
    26    14    15 1   
    27    14    18 1   
    28    14    48 1   
    29    15    16 1   
    30    16    17 2   
    31    16    19 1   
    32    17    18 1   
    33    17    21 1   
    34    18    20 2   
    35    19    49 1   
    36    19    50 1   
    37    19    51 1   
    38    21    22 2   
    39    21    52 1   
    40    22    53 1   
    41    22    54 1   
    42    23    24 1   
    43    23    27 1   
    44    23    55 1   
    45    24    25 1   
    46    24    74 2   
    47    25    26 2   
    48    25    72 1   
    49    26    27 1   
    50    26    28 1   
    51    27    71 2   
    52    28    29 2   
    53    28    59 1   
    54    29    60 1   
    55    29    61 1   
    56    30    31 2   
    57    30    34 1   
    58    31    32 1   
    59    31    71 1   
    60    32    33 2   
    61    32    70 1   
    62    33    34 1   
    63    33    73 1   
    64    35    36 1   
    65    35    37 1   
    66    35    75 1   
    67    56    72 1   
    68    57    72 1   
    69    58    72 1   
    70    62    71 1   
    71    63    70 1   
    72    64    70 1   
    73    65    70 1   
    74    66    73 1   
    75    67    73 1   
    76    68    75 1   
    77    69    75 1   
    78    73    75 1   
@<TRIPOS>SUBSTRUCTURE
     1 BLA         1 TEMP              0 ****  ****    0 ROOT
