@<TRIPOS>MOLECULE
BLA
   75    78     1     0     0
SMALL
abcg2


@<TRIPOS>ATOM
      1 CHA          6.3120    14.9730    29.7490 ce         1 BLA       0.059800
      2 NA           5.6360    16.5510    31.4800 na         1 BLA      -0.077000
      3 C1A          6.0210    15.3020    31.0900 cc         1 BLA      -0.146800
      4 C2A          6.0560    14.4940    32.2370 cd         1 BLA      -0.038300
      5 C3A          5.7160    15.3090    33.3240 cd         1 BLA      -0.139300
      6 C4A          5.4480    16.5930    32.8210 cc         1 BLA      -0.152800
      7 CMA          5.6060    14.8660    34.7440 c3         1 BLA      -0.007800
      8 CAA          6.3960    13.0420    32.3100 c3         1 BLA      -0.005100
      9 CBA          7.8780    12.7810    32.5960 c3         1 BLA      -0.203400
     10 CGA          8.8080    13.0860    31.4050 c          1 BLA       0.708000
     11 O1A          8.4580    12.6170    30.2980 o          1 BLA      -0.730500
     12 O2A          9.8410    13.7400    31.6400 o          1 BLA      -0.730500
     13 CHB          5.0420    17.7600    33.5430 ce         1 BLA      -0.106200
     14 NB           3.9630    19.0790    31.7760 ns         1 BLA      -0.411100
     15 C1B          4.4290    18.8660    33.0630 cd         1 BLA      -0.009400
     16 C2B          4.1520    20.0870    33.8120 cd         1 BLA      -0.008200
     17 C3B          3.5630    20.9740    32.9710 cc         1 BLA      -0.178200
     18 C4B          3.3860    20.3170    31.6590 c          1 BLA       0.562200
     19 CMB          4.5030    20.2790    35.2420 c3         1 BLA      -0.045900
     20 OB           2.8380    20.7540    30.6650 o          1 BLA      -0.550000
     21 CAB          3.1060    22.3340    33.1740 ce         1 BLA      -0.121000
     22 CBB          3.5410    23.1980    34.0940 c2         1 BLA      -0.339000
     23 NC           6.2820    19.9810    29.4010 ns         1 BLA      -0.402100
     24 C1C          6.2380    21.1990    30.0210 c          1 BLA       0.558200
     25 C2C          5.8390    22.1680    28.9760 cc         1 BLA      -0.178400
     26 C3C          5.7150    21.5020    27.8060 cd         1 BLA      -0.020000
     27 C4C          5.9560    20.0750    28.0680 cd         1 BLA       0.038600
     28 CAC          5.3810    22.0960    26.5170 cf         1 BLA      -0.158000
     29 CBC          5.8800    21.7390    25.3340 c2         1 BLA      -0.309000
     30 ND           6.0570    17.1860    28.7880 nd         1 BLA      -0.657300
     31 C1D          6.0620    17.6510    27.5540 cc         1 BLA       0.463900
     32 C2D          6.3200    16.6070    26.5780 cc         1 BLA      -0.301800
     33 C3D          6.5050    15.4620    27.2950 cd         1 BLA       0.009800
     34 C4D          6.3050    15.8330    28.6830 cd         1 BLA       0.008600
     35 CGD          5.8490    11.7520    26.2210 c          1 BLA       0.724000
     36 O1D          6.9820    11.4930    25.7670 o          1 BLA      -0.743500
     37 O2D          4.8860    10.9650    26.3160 o          1 BLA      -0.743500
     38 HHA          6.5730    13.9380    29.5700 ha         1 BLA       0.267000
     39 HA           5.6460    17.3170    30.8190 hn         1 BLA       0.379000
     40 HMA1         5.4170    15.6960    35.4230 hc         1 BLA       0.028033
     41 HMA2         4.7910    14.1500    34.8760 hc         1 BLA       0.028033
     42 HMA3         6.5200    14.3730    35.0770 hc         1 BLA       0.028033
     43 HAA1         5.7920    12.5860    33.0990 hc         1 BLA       0.039700
     44 HAA2         6.1180    12.5360    31.3840 hc         1 BLA       0.039700
     45 HBA1         8.1890    13.3440    33.4800 hc         1 BLA       0.016700
     46 HBA2         7.9930    11.7210    32.8480 hc         1 BLA       0.016700
     47 HHB          5.2500    17.7470    34.6040 ha         1 BLA       0.188000
     48 HB           3.8120    18.3600    31.0870 hn         1 BLA       0.347500
     49 HMB1         3.7850    20.9370    35.7300 hc         1 BLA       0.046367
     50 HMB2         4.5210    19.3380    35.7910 hc         1 BLA       0.046367
     51 HMB3         5.4890    20.7370    35.3490 hc         1 BLA       0.046367
     52 HAB          2.3440    22.6710    32.4780 ha         1 BLA       0.178000
     53 HBB1         4.3320    22.9690    34.7960 ha         1 BLA       0.154500
     54 HBB2         3.1180    24.1910    34.1530 ha         1 BLA       0.154500
     55 HC           6.4930    19.1010    29.8470 hn         1 BLA       0.367500
     56 HMC1         5.3090    24.1720    28.4260 hc         1 BLA       0.039700
     57 HMC2         4.9960    23.7590    30.1130 hc         1 BLA       0.039700
     58 HMC3         6.6380    24.0530    29.5730 hc         1 BLA       0.039700
     59 HAC          4.6920    22.9340    26.5550 ha         1 BLA       0.168000
     60 HBC1         6.6110    20.9500    25.2170 ha         1 BLA       0.164000
     61 HBC2         5.5820    22.2590    24.4340 ha         1 BLA       0.164000
     62 HHD          5.6170    19.2530    26.1820 ha         1 BLA       0.186000
     63 HMD1         6.6870    15.8980    24.5900 hc         1 BLA       0.025367
     64 HMD2         5.4170    17.1070    24.6920 hc         1 BLA       0.025367
     65 HMD3         7.0970    17.5920    24.8330 hc         1 BLA       0.025367
     66 HAD1         7.3040    14.1510    25.8320 hc         1 BLA       0.073700
     67 HAD2         7.5480    13.6220    27.4760 hc         1 BLA       0.073700
     68 HBD1         5.0690    13.1550    27.6670 hc         1 BLA       0.013700
     69 HBD2         4.8630    13.6580    26.0160 hc         1 BLA       0.013700
     70 CMD          6.3850    16.8100    25.1030 c3         1 BLA      -0.006900
     71 CHD          5.8590    19.0350    27.2130 ce         1 BLA      -0.236600
     72 CMC          5.6840    23.6110    29.2790 c3         1 BLA      -0.022900
     73 CAD          6.8180    14.0880    26.8080 c3         1 BLA      -0.034200
     74 OC           6.4970    21.4240    31.1870 o          1 BLA      -0.550000
     75 CBD          5.5820    13.1950    26.7020 c3         1 BLA      -0.193400
@<TRIPOS>BOND
     1     1     3 1   
     2     1    34 2   
     3     1    38 1   
     4     2     3 1   
     5     2     6 1   
     6     2    39 1   
     7     3     4 2   
     8     4     5 1   
     9     4     8 1   
    10     5     6 2   
    11     5     7 1   
    12     6    13 1   
    13     7    40 1   
    14     7    41 1   
    15     7    42 1   
    16     8     9 1   
    17     8    43 1   
    18     8    44 1   
    19     9    10 1   
    20     9    45 1   
    21     9    46 1   
    22    10    11 1   
    23    10    12 1   
    24    13    15 2   
    25    13    47 1   
    26    14    15 1   
    27    14    18 1   
    28    14    48 1   
    29    15    16 1   
    30    16    17 2   
    31    16    19 1   
    32    17    18 1   
    33    17    21 1   
    34    18    20 2   
    35    19    49 1   
    36    19    50 1   
    37    19    51 1   
    38    21    22 2   
    39    21    52 1   
    40    22    53 1   
    41    22    54 1   
    42    23    24 1   
    43    23    27 1   
    44    23    55 1   
    45    24    25 1   
    46    24    74 2   
    47    25    26 2   
    48    25    72 1   
    49    26    27 1   
    50    26    28 1   
    51    27    71 2   
    52    28    29 2   
    53    28    59 1   
    54    29    60 1   
    55    29    61 1   
    56    30    31 2   
    57    30    34 1   
    58    31    32 1   
    59    31    71 1   
    60    32    33 2   
    61    32    70 1   
    62    33    34 1   
    63    33    73 1   
    64    35    36 1   
    65    35    37 1   
    66    35    75 1   
    67    56    72 1   
    68    57    72 1   
    69    58    72 1   
    70    62    71 1   
    71    63    70 1   
    72    64    70 1   
    73    65    70 1   
    74    66    73 1   
    75    67    73 1   
    76    68    75 1   
    77    69    75 1   
    78    73    75 1   
@<TRIPOS>SUBSTRUCTURE
     1 BLA         1 TEMP              0 ****  ****    0 ROOT
