@<TRIPOS>MOLECULE
BLB
  183   188     1     0     0
SMALL
No Charge or Current Charge


@<TRIPOS>ATOM
      1 NA           8.4280    -1.8630   -27.6650 nt         1 BLB      -0.616000
      2 C2           8.1770     0.5710   -27.1670 c3         1 BLB       0.096500
      3 C1           9.0690    -0.6800   -27.5130 c          1 BLB       0.611100
      4 O1          10.2860    -0.6400   -27.6380 o          1 BLB      -0.607100
      5 NC           7.8310     1.3380   -29.5190 n7         1 BLB      -0.859400
      6 C3           7.1460     0.8520   -28.2940 c3         1 BLB       0.119800
      7 NB           8.9180     1.8420   -26.8720 n8         1 BLB      -0.981200
      8 C5           5.8260     1.4450   -31.0050 c3         1 BLB      -0.190400
      9 C4           6.1700     0.2640   -31.9080 c          1 BLB       0.609100
     10 O4           7.1460     0.2280   -32.6380 o          1 BLB      -0.653100
     11 C8           5.3040     5.0210   -28.8000 ca         1 BLB       0.377900
     12 C9           6.3140     6.0080   -28.7010 ca         1 BLB      -0.155300
     13 C10          7.6010     5.6500   -29.2050 ca         1 BLB       0.108500
     14 NG           7.7910     4.4320   -29.7670 nb         1 BLB      -0.191000
     15 C7           6.7520     3.5760   -29.8220 ca         1 BLB       0.183300
     16 NE           5.5110     3.8210   -29.3520 nb         1 BLB      -0.288000
     17 C6           7.0600     2.2020   -30.4530 c3         1 BLB       0.162200
     18 CA           6.0340     7.3830   -28.0760 c3         1 BLB      -0.038800
     19 C12          8.8350     6.5580   -29.1600 c          1 BLB       0.502600
     20 O12          8.8320     7.7160   -28.7660 o          1 BLB      -0.614100
     21 NH          10.0040     5.9940   -29.6300 ns         1 BLB      -0.475900
     22 C13         11.3500     6.6210   -29.5900 c3         1 BLB       0.034700
     23 C30         11.6510     7.4690   -30.8540 c          1 BLB       0.591100
     24 O30         12.7190     8.0460   -31.0110 o          1 BLB      -0.611100
     25 C14         12.4600     5.5540   -29.3970 c3         1 BLB       0.157000
     26 C27         12.5320     4.5360   -30.5320 cc         1 BLB       0.190300
     27 OH1         12.2040     4.8790   -28.1430 os         1 BLB      -0.445000
     28 NJ          11.4320     3.8380   -30.9700 nc         1 BLB      -0.681000
     29 C28         13.6450     4.1760   -31.2420 cd         1 BLB      -0.197000
     30 C29         11.8550     3.0280   -31.9300 cd         1 BLB       0.392400
     31 NI          13.2100     3.2060   -32.1310 na         1 BLB      -0.304500
     32 NK          10.6560     7.5170   -31.8090 ns         1 BLB      -0.497900
     33 C34         10.8080     5.8260   -34.2890 c3         1 BLB      -0.129700
     34 C36          9.9920     4.9010   -35.2120 c          1 BLB       0.604100
     35 O36         10.0210     4.9640   -36.4340 o          1 BLB      -0.593100
     36 OH2         10.4420     7.9080   -35.5350 oh         1 BLB      -0.645000
     37 C31         10.7660     8.1740   -33.1180 c3         1 BLB       0.080700
     38 CB          10.0850     9.5590   -33.0440 c3         1 BLB      -0.116100
     39 C33         10.2160     7.2700   -34.2700 c3         1 BLB       0.169300
     40 CC          12.3270     5.7510   -34.6000 c3         1 BLB      -0.071100
     41 NL           9.2230     3.9670   -34.5540 ns         1 BLB      -0.500900
     42 C37          8.3650     2.9430   -35.2060 c3         1 BLB       0.002700
     43 C40          6.9490     2.9450   -34.5760 c          1 BLB       0.582100
     44 O40          6.6860     3.5270   -33.5320 o          1 BLB      -0.605100
     45 C38          9.0040     1.5240   -35.1560 c3         1 BLB       0.185300
     46 OH3          9.3290     1.1610   -33.8080 oh         1 BLB      -0.692000
     47 CD          10.2840     1.4170   -36.0090 c3         1 BLB      -0.090100
     48 NM           5.9890     2.2510   -35.2880 ns         1 BLB      -0.500900
     49 O49         -3.2850    -0.0540   -29.2080 o          1 BLB      -0.599100
     50 C43          2.3560     3.0880   -34.3560 cc         1 BLB       0.453700
     51 C41          4.6100     2.0330   -34.8440 c3         1 BLB       0.113000
     52 S43          0.9780     3.7580   -35.1970 ss         1 BLB      -0.000400
     53 C44         -0.0360     3.0400   -33.9780 cc         1 BLB      -0.238000
     54 C45          0.7200     2.3620   -33.0430 cd         1 BLB       0.235000
     55 NN           2.0950     2.3940   -33.2560 nd         1 BLB      -0.646000
     56 C47         -0.4990     0.3430   -29.9880 cd         1 BLB      -0.242000
     57 C48         -1.5750     0.8880   -30.6520 cc         1 BLB       0.205500
     58 NO          -1.2580     1.6500   -31.7650 nc         1 BLB      -0.669000
     59 C46          0.0660     1.6740   -31.9410 cd         1 BLB       0.372400
     60 S46          1.0170     0.7850   -30.7530 ss         1 BLB       0.169600
     61 NP          -3.9340     1.2720   -30.9510 ns         1 BLB      -0.507900
     62 C50         -5.3860     1.1400   -30.8020 c3         1 BLB       0.109000
     63 C51         -6.0140     0.3090   -31.9420 c3         1 BLB      -0.093400
     64 C52         -5.5040    -1.1500   -32.0230 c3         1 BLB      -0.106400
     65 C53         -6.1590    -1.9460   -33.1670 c3         1 BLB       0.054600
     66 C54         -6.1120    -4.4280   -32.6960 cz         1 BLB       0.937600
     67 NR          -5.6170    -3.3190   -33.2070 nu         1 BLB      -0.888000
     68 NS          -7.0950    -4.3880   -31.8450 nv         1 BLB      -0.611300
     69 NT          -5.5580    -5.5620   -33.0010 nv         1 BLB      -0.611300
     70 O59         12.5560     0.2930   -26.6580 oh         1 BLB      -0.736000
     71 O58         12.7140     1.9140   -24.4930 oh         1 BLB      -0.734000
     72 C61         14.3390     1.1000   -28.8110 c3         1 BLB       0.175600
     73 O61         15.5410     0.9520   -28.0240 oh         1 BLB      -0.707000
     74 O56         11.5930     4.3880   -25.6040 os         1 BLB      -0.450000
     75 C60         13.3170     2.1450   -28.2380 c6         1 BLB       0.149300
     76 O62         14.0470     3.4020   -28.0720 os         1 BLB      -0.476000
     77 C63         13.3540     4.4590   -27.3680 c6         1 BLB       0.381300
     78 C57         12.9700     4.0100   -25.9020 c6         1 BLB       0.165300
     79 C58         13.2400     2.4710   -25.7110 c6         1 BLB       0.155300
     80 C59         12.6020     1.7220   -26.9030 c6         1 BLB       0.118300
     81 C69          9.7060     4.6670   -24.0460 c6         1 BLB       0.146300
     82 C68          9.1450     5.8640   -24.8880 c6         1 BLB       0.196300
     83 C67          9.8260     7.1930   -24.4380 c6         1 BLB       0.125300
     84 C65         11.3730     7.0560   -24.5820 c6         1 BLB       0.136300
     85 O64         11.8430     5.9040   -23.8270 os         1 BLB      -0.453000
     86 C64         11.2640     4.6380   -24.2250 c6         1 BLB       0.358300
     87 O68          7.7020     5.9960   -24.7980 os         1 BLB      -0.446100
     88 O67          9.3110     8.3160   -25.1830 oh         1 BLB      -0.716000
     89 O69          9.3030     4.7800   -22.6510 oh         1 BLB      -0.706000
     90 C70          6.8970     5.0530   -25.3530 c          1 BLB       0.656100
     91 O70          7.2590     4.0920   -26.0050 o          1 BLB      -0.562000
     92 HA2          7.4260    -1.9190   -27.5540 hn         1 BLB       0.310000
     93 HA1          8.9670    -2.6880   -27.8850 hn         1 BLB       0.310000
     94 H2           7.6180     0.2950   -26.2620 h1         1 BLB       0.062700
     95 HNC          8.2140     0.5390   -30.0380 hn         1 BLB       0.436000
     96 H3E          6.5540    -0.0480   -28.5070 h1         1 BLB       0.033200
     97 H3X          6.4500     1.6140   -27.9180 h1         1 BLB       0.033200
     98 HB1          8.2350     2.5660   -26.6010 hn         1 BLB       0.427500
     99 HB2          9.2250     2.1870   -27.7890 hn         1 BLB       0.427500
    100 HD2          4.4780    -0.7260   -31.3130 hn         1 BLB       0.314500
    101 HD1          5.4700    -1.5570   -32.4940 hn         1 BLB       0.314500
    102 H5E          5.2270     2.1300   -31.6160 hc         1 BLB       0.077200
    103 H5X          5.1350     1.1290   -30.2160 hc         1 BLB       0.077200
    104 H6           7.6970     2.4280   -31.3220 h1         1 BLB       0.105700
    105 HF2          3.3260     4.5260   -28.6650 hn         1 BLB       0.485500
    106 HF1          3.6940     6.1390   -28.1720 hn         1 BLB       0.485500
    107 HAA          6.6870     7.5640   -27.2150 hc         1 BLB       0.051700
    108 HAB          6.2040     8.1850   -28.8040 hc         1 BLB       0.051700
    109 HAC          5.0060     7.5020   -27.7160 hc         1 BLB       0.051700
    110 HNH          9.9650     5.0180   -29.9230 hn         1 BLB       0.385500
    111 H13         11.3890     7.3150   -28.7410 h1         1 BLB       0.113700
    112 H14         13.4220     6.0810   -29.3520 h1         1 BLB       0.075700
    113 H28         14.6730     4.5140   -31.1650 h4         1 BLB       0.168000
    114 H29         11.2670     2.3200   -32.5010 h5         1 BLB       0.080100
    115 HNI         13.7690     2.7020   -32.8090 hn         1 BLB       0.356000
    116 HNK          9.8000     7.0300   -31.5770 hn         1 BLB       0.323500
    117 H34         10.6760     5.4270   -33.2790 hc         1 BLB       0.070700
    118 HO2          9.8470     8.6870   -35.5790 ho         1 BLB       0.444000
    119 H31         11.8310     8.3460   -33.3260 h1         1 BLB       0.092700
    120 HBA         10.2430    10.1290   -33.9670 hc         1 BLB       0.045033
    121 HBB          9.0060     9.4550   -32.8790 hc         1 BLB       0.045033
    122 HBC         10.5010    10.1470   -32.2170 hc         1 BLB       0.045033
    123 H33          9.1340     7.1670   -34.1080 h1         1 BLB       0.031700
    124 HCB         12.9090     6.3010   -33.8510 hc         1 BLB       0.047033
    125 HCC         12.6680     4.7090   -34.5900 hc         1 BLB       0.047033
    126 HCA         12.5510     6.1690   -35.5880 hc         1 BLB       0.047033
    127 HNL          9.2470     3.9810   -33.5410 hn         1 BLB       0.336500
    128 H37          8.2220     3.2150   -36.2600 h1         1 BLB       0.092700
    129 H38          8.2830     0.8020   -35.5640 h1         1 BLB       0.026700
    130 HO3          8.4950     0.7980   -33.3920 ho         1 BLB       0.485000
    131 HDB         10.6700     0.3910   -35.9960 hc         1 BLB       0.047033
    132 HDC         10.0760     1.6880   -37.0500 hc         1 BLB       0.047033
    133 HDA         11.0690     2.0820   -35.6290 hc         1 BLB       0.047033
    134 HNM          6.2860     1.8150   -36.1540 hn         1 BLB       0.321500
    135 H2E          3.7190     3.7090   -35.8820 hc         1 BLB       0.078700
    136 H2X          4.2240     4.0850   -34.2410 hc         1 BLB       0.078700
    137 H1E          4.1500     1.2790   -35.4970 h1         1 BLB       0.058200
    138 H1X          4.6360     1.6180   -33.8290 h1         1 BLB       0.058200
    139 H44         -1.1100     3.1570   -34.0290 h4         1 BLB       0.165000
    140 HNP         -3.5650     1.8180   -31.7220 hn         1 BLB       0.335500
    141 H501        -5.6250     0.6790   -29.8340 h1         1 BLB       0.063200
    142 H502        -5.8260     2.1470   -30.8070 h1         1 BLB       0.063200
    143 H511        -7.1030     0.3010   -31.8060 hc         1 BLB       0.054700
    144 H512        -5.8200     0.8140   -32.8960 hc         1 BLB       0.054700
    145 H521        -4.4170    -1.1500   -32.1710 hc         1 BLB       0.060700
    146 H522        -5.6970    -1.6530   -31.0670 hc         1 BLB       0.060700
    147 H531        -7.2520    -1.9480   -33.0430 h1         1 BLB       0.078700
    148 H532        -5.9470    -1.4380   -34.1190 h1         1 BLB       0.078700
    149 HNR         -4.7660    -3.4360   -33.7450 hn         1 BLB       0.369000
    150 HNS1        -7.4650    -3.5080   -31.5320 hn         1 BLB       0.380000
    151 HNS2        -7.4580    -5.2170   -31.4060 hn         1 BLB       0.380000
    152 HNT1        -5.9020    -6.4370   -32.6400 hn         1 BLB       0.380000
    153 HNT2        -4.8190    -5.6180   -33.6810 hn         1 BLB       0.380000
    154 HO59        11.7100    -0.0480   -27.0810 ho         1 BLB       0.540000
    155 HO58        12.5130     0.9830   -24.7650 ho         1 BLB       0.527000
    156 H611        14.6060     1.4280   -29.8240 h1         1 BLB       0.022200
    157 H612        13.8330     0.1320   -28.9210 h1         1 BLB       0.022200
    158 HO61        16.0940     0.2740   -28.4740 ho         1 BLB       0.497000
    159 H60         12.5380     2.2880   -28.9990 h1         1 BLB       0.059700
    160 H63         14.0340     5.3190   -27.2720 h2         1 BLB       0.076700
    161 H57         13.6330     4.5580   -25.2180 h1         1 BLB       0.061700
    162 H58         14.3280     2.3060   -25.7480 h1         1 BLB       0.073700
    163 H59         11.5700     2.0950   -26.9830 h1         1 BLB       0.084700
    164 H69          9.3150     3.7320   -24.4720 h1         1 BLB       0.074700
    165 H68          9.4050     5.6960   -25.9450 h1         1 BLB       0.103700
    166 H67          9.6040     7.3380   -23.3690 h1         1 BLB       0.063700
    167 H65         11.6240     6.9180   -25.6440 h1         1 BLB       0.085700
    168 H64         11.6700     3.8420   -23.5860 h2         1 BLB       0.079700
    169 HO67         8.3360     8.1850   -25.2280 ho         1 BLB       0.504000
    170 HO69         9.5250     3.9280   -22.2090 ho         1 BLB       0.509000
    171 NF           4.0280     5.1950   -28.3570 nv         1 BLB      -1.093900
    172 ND           5.2940    -0.7590   -31.9040 nt         1 BLB      -0.602000
    173 C66         12.1390     8.3220   -24.0760 c3         1 BLB       0.170600
    174 C42          3.7530     3.3140   -34.8600 c3         1 BLB      -0.141700
    175 NQ           5.6130     5.3590   -25.1350 nt         1 BLB      -0.607000
    176 O66         13.5720     8.1930   -24.1690 oh         1 BLB      -0.708000
    177 H47         -0.5070    -0.2840   -29.1060 h4         1 BLB       0.174000
    178 C49         -2.9830     0.6370   -30.1760 c          1 BLB       0.537600
    179 HNQ1         5.3840     6.1780   -24.5960 hn         1 BLB       0.325500
    180 HNQ2         4.8930     4.7840   -25.5440 hn         1 BLB       0.325500
    181 HO66        13.9590     8.9950   -23.7490 ho         1 BLB       0.505000
    182 H661        11.8070     9.1870   -24.6660 h1         1 BLB       0.025700
    183 H662        11.8460     8.5060   -23.0340 h1         1 BLB       0.025700
@<TRIPOS>BOND
     1     1     3 1   
     2     1    92 1   
     3     1    93 1   
     4     2     3 1   
     5     2     6 1   
     6     2     7 1   
     7     2    94 1   
     8     3     4 2   
     9     5     6 1   
    10     5    17 1   
    11     5    95 1   
    12     6    96 1   
    13     6    97 1   
    14     7    98 1   
    15     7    99 1   
    16     8     9 1   
    17     8    17 1   
    18     8   102 1   
    19     8   103 1   
    20     9    10 2   
    21     9   172 1   
    22    11    12 ar  
    23    11    16 ar  
    24    11   171 1   
    25    12    13 ar  
    26    12    18 1   
    27    13    14 ar  
    28    13    19 1   
    29    14    15 ar  
    30    15    16 ar  
    31    15    17 1   
    32    17   104 1   
    33    18   107 1   
    34    18   108 1   
    35    18   109 1   
    36    19    20 2   
    37    19    21 1   
    38    21    22 1   
    39    21   110 1   
    40    22    23 1   
    41    22    25 1   
    42    22   111 1   
    43    23    24 2   
    44    23    32 1   
    45    25    26 1   
    46    25    27 1   
    47    25   112 1   
    48    26    28 1   
    49    26    29 2   
    50    27    77 1   
    51    28    30 2   
    52    29    31 1   
    53    29   113 1   
    54    30    31 1   
    55    30   114 1   
    56    31   115 1   
    57    32    37 1   
    58    32   116 1   
    59    33    34 1   
    60    33    39 1   
    61    33    40 1   
    62    33   117 1   
    63    34    35 2   
    64    34    41 1   
    65    36    39 1   
    66    36   118 1   
    67    37    38 1   
    68    37    39 1   
    69    37   119 1   
    70    38   120 1   
    71    38   121 1   
    72    38   122 1   
    73    39   123 1   
    74    40   124 1   
    75    40   125 1   
    76    40   126 1   
    77    41    42 1   
    78    41   127 1   
    79    42    43 1   
    80    42    45 1   
    81    42   128 1   
    82    43    44 2   
    83    43    48 1   
    84    45    46 1   
    85    45    47 1   
    86    45   129 1   
    87    46   130 1   
    88    47   131 1   
    89    47   132 1   
    90    47   133 1   
    91    48    51 1   
    92    48   134 1   
    93    49   178 2   
    94    50    52 1   
    95    50    55 2   
    96    50   174 1   
    97    51   137 1   
    98    51   138 1   
    99    51   174 1   
   100    52    53 1   
   101    53    54 2   
   102    53   139 1   
   103    54    55 1   
   104    54    59 1   
   105    56    57 2   
   106    56    60 1   
   107    56   177 1   
   108    57    58 1   
   109    57   178 1   
   110    58    59 2   
   111    59    60 1   
   112    61    62 1   
   113    61   140 1   
   114    61   178 1   
   115    62    63 1   
   116    62   141 1   
   117    62   142 1   
   118    63    64 1   
   119    63   143 1   
   120    63   144 1   
   121    64    65 1   
   122    64   145 1   
   123    64   146 1   
   124    65    67 1   
   125    65   147 1   
   126    65   148 1   
   127    66    67 2   
   128    66    68 1   
   129    66    69 1   
   130    67   149 1   
   131    68   150 1   
   132    68   151 1   
   133    69   152 1   
   134    69   153 1   
   135    70    80 1   
   136    70   154 1   
   137    71    79 1   
   138    71   155 1   
   139    72    73 1   
   140    72    75 1   
   141    72   156 1   
   142    72   157 1   
   143    73   158 1   
   144    74    78 1   
   145    74    86 1   
   146    75    76 1   
   147    75    80 1   
   148    75   159 1   
   149    76    77 1   
   150    77    78 1   
   151    77   160 1   
   152    78    79 1   
   153    78   161 1   
   154    79    80 1   
   155    79   162 1   
   156    80   163 1   
   157    81    82 1   
   158    81    86 1   
   159    81    89 1   
   160    81   164 1   
   161    82    83 1   
   162    82    87 1   
   163    82   165 1   
   164    83    84 1   
   165    83    88 1   
   166    83   166 1   
   167    84    85 1   
   168    84   167 1   
   169    84   173 1   
   170    85    86 1   
   171    86   168 1   
   172    87    90 1   
   173    88   169 1   
   174    89   170 1   
   175    90    91 2   
   176    90   175 1   
   177   100   172 1   
   178   101   172 1   
   179   105   171 1   
   180   106   171 1   
   181   135   174 1   
   182   136   174 1   
   183   173   176 1   
   184   173   182 1   
   185   173   183 1   
   186   175   179 1   
   187   175   180 1   
   188   176   181 1   
@<TRIPOS>SUBSTRUCTURE
     1 BLB         1 TEMP              0 ****  ****    0 ROOT
