@<TRIPOS>MOLECULE
BLB
  183   188     1     0     0
SMALL
abcg2


@<TRIPOS>ATOM
      1 NA           9.7250    -1.9420   -28.8480 nt         1 BLB      -0.616000
      2 C2           9.0240     0.1480   -27.8480 c3         1 BLB       0.096500
      3 C1          10.1090    -0.7070   -28.5030 c          1 BLB       0.611100
      4 O1          11.2540    -0.3080   -28.6840 o          1 BLB      -0.607100
      5 NC           8.1400     1.0020   -29.9720 n7         1 BLB      -0.859400
      6 C3           7.7970     0.2890   -28.7620 c3         1 BLB       0.119800
      7 NB           9.5790     1.4080   -27.4220 n8         1 BLB      -0.981200
      8 C5           5.8680     0.6840   -31.0390 c3         1 BLB      -0.190400
      9 C4           6.2820    -0.4830   -31.9010 c          1 BLB       0.609100
     10 O4           7.1100    -0.3830   -32.8080 o          1 BLB      -0.653100
     11 C8           4.8680     3.9540   -28.8740 ca         1 BLB       0.377900
     12 C9           5.6790     5.1170   -28.7450 ca         1 BLB      -0.155300
     13 C10          6.9670     4.9620   -29.2200 ca         1 BLB       0.108500
     14 NG           7.3970     3.8340   -29.8040 nb         1 BLB      -0.191000
     15 C7           6.5420     2.8420   -29.9320 ca         1 BLB       0.183300
     16 NE           5.3030     2.8500   -29.4780 nb         1 BLB      -0.288000
     17 C6           7.0320     1.6120   -30.6810 c3         1 BLB       0.162200
     18 CA           5.0780     6.3310   -28.1090 c3         1 BLB      -0.038800
     19 C12          8.0270     6.0410   -29.1590 c          1 BLB       0.502600
     20 O12          7.7890     7.2250   -28.9810 o          1 BLB      -0.614100
     21 NH           9.2710     5.5650   -29.3400 ns         1 BLB      -0.475900
     22 C13         10.4160     6.4300   -29.4000 c3         1 BLB       0.034700
     23 C30         10.5210     7.2660   -30.6820 c          1 BLB       0.591100
     24 O30         11.2870     8.2180   -30.7120 o          1 BLB      -0.611100
     25 C14         11.7120     5.6190   -29.2580 c3         1 BLB       0.157000
     26 C27         11.8580     4.6150   -30.3510 cc         1 BLB       0.190300
     27 OH1         11.6820     4.9960   -27.9870 os         1 BLB      -0.445000
     28 NJ          10.9350     3.6190   -30.5350 nc         1 BLB      -0.681000
     29 C28         12.8580     4.4960   -31.2730 cd         1 BLB      -0.197000
     30 C29         11.3670     2.9110   -31.5480 cd         1 BLB       0.392400
     31 NI          12.5250     3.4080   -32.0260 na         1 BLB      -0.304500
     32 NK           9.7710     6.8730   -31.7170 ns         1 BLB      -0.497900
     33 C34         10.6970     5.6150   -34.2850 c3         1 BLB      -0.129700
     34 C36         10.2680     4.4770   -35.2070 c          1 BLB       0.604100
     35 O36         10.5700     4.4200   -36.3870 o          1 BLB      -0.593100
     36 OH2          9.3090     7.2240   -35.3490 oh         1 BLB      -0.645000
     37 C31          9.6880     7.5940   -32.9720 c3         1 BLB       0.080700
     38 CB           8.5430     8.6000   -32.9220 c3         1 BLB      -0.116100
     39 C33          9.5040     6.5770   -34.1180 c3         1 BLB       0.169300
     40 CC          11.9730     6.2800   -34.7790 c3         1 BLB      -0.071100
     41 NL           9.5710     3.5090   -34.5780 ns         1 BLB      -0.500900
     42 C37          8.8910     2.4230   -35.2240 c3         1 BLB       0.002700
     43 C40          7.4290     2.4630   -34.7770 c          1 BLB       0.582100
     44 O40          7.0660     3.1680   -33.8480 o          1 BLB      -0.605100
     45 C38          9.5500     1.0550   -34.9130 c3         1 BLB       0.185300
     46 OH3          9.5540     0.7900   -33.5340 oh         1 BLB      -0.692000
     47 CD          10.9800     1.0200   -35.4170 c3         1 BLB      -0.090100
     48 NM           6.5780     1.6840   -35.4560 ns         1 BLB      -0.500900
     49 O49         -1.6970     2.7300   -28.4860 o          1 BLB      -0.599100
     50 C43          2.9860     2.7500   -35.0840 cc         1 BLB       0.453700
     51 C41          5.1860     1.6120   -35.0960 c3         1 BLB       0.113000
     52 S43          1.5820     2.5330   -36.0680 ss         1 BLB      -0.000400
     53 C44          0.5970     2.5830   -34.6720 cc         1 BLB      -0.238000
     54 C45          1.3890     2.7440   -33.5740 cd         1 BLB       0.235000
     55 NN           2.7240     2.8410   -33.8220 nd         1 BLB      -0.646000
     56 C47          0.8550     2.9980   -29.7880 cd         1 BLB      -0.242000
     57 C48         -0.3390     2.8210   -30.4200 cc         1 BLB       0.205500
     58 NO          -0.2720     2.7260   -31.7780 nc         1 BLB      -0.669000
     59 C46          0.9490     2.8270   -32.1950 cd         1 BLB       0.372400
     60 S46          2.1140     3.0530   -30.9360 ss         1 BLB       0.169600
     61 NP          -2.7010     2.6180   -30.5190 ns         1 BLB      -0.507900
     62 C50         -4.0640     2.4770   -30.0550 c3         1 BLB       0.109000
     63 C51         -4.9310     1.8010   -31.1050 c3         1 BLB      -0.093400
     64 C52         -4.4920     0.3840   -31.4490 c3         1 BLB      -0.106400
     65 C53         -5.4190    -0.2310   -32.4910 c3         1 BLB       0.054600
     66 C54         -5.2680    -2.6900   -32.2540 cz         1 BLB       0.937600
     67 NR          -5.0240    -1.5630   -32.9140 nu         1 BLB      -0.888000
     68 NS          -6.0290    -2.6970   -31.1670 nv         1 BLB      -0.611300
     69 NT          -4.7490    -3.8300   -32.6950 nv         1 BLB      -0.611300
     70 O59         13.1710     0.8810   -26.8040 oh         1 BLB      -0.736000
     71 O58         12.7860     2.4480   -24.5580 oh         1 BLB      -0.734000
     72 C61         14.9260     2.2160   -28.5840 c3         1 BLB       0.175600
     73 O61         15.8600     2.2930   -27.5360 oh         1 BLB      -0.707000
     74 O56         11.3160     4.4070   -25.5450 os         1 BLB      -0.450000
     75 C60         13.6100     2.8580   -28.2000 c6         1 BLB       0.149300
     76 O62         13.8740     4.2440   -27.9860 os         1 BLB      -0.476000
     77 C63         12.9030     4.9790   -27.3160 c6         1 BLB       0.381300
     78 C57         12.6830     4.4410   -25.8700 c6         1 BLB       0.165300
     79 C58         13.2810     3.0320   -25.7350 c6         1 BLB       0.155300
     80 C59         12.8930     2.2460   -26.9800 c6         1 BLB       0.118300
     81 C69          9.7420     4.2330   -23.7800 c6         1 BLB       0.146300
     82 C68          8.5140     4.5350   -24.6250 c6         1 BLB       0.196300
     83 C67          8.2870     6.0360   -24.7440 c6         1 BLB       0.125300
     84 C65          9.5650     6.6580   -25.3250 c6         1 BLB       0.136300
     85 O64         10.6720     6.3590   -24.4890 os         1 BLB      -0.453000
     86 C64         10.9480     4.9970   -24.3410 c6         1 BLB       0.358300
     87 O68          7.3810     3.9320   -24.0190 os         1 BLB      -0.446100
     88 O67          7.1780     6.2260   -25.5870 oh         1 BLB      -0.716000
     89 O69          9.4770     4.6400   -22.4620 oh         1 BLB      -0.706000
     90 C70          6.4800     3.3090   -24.7920 c          1 BLB       0.656100
     91 O70          6.6480     3.0290   -25.9630 o          1 BLB      -0.562000
     92 HA2          8.8110    -2.3020   -28.6330 hn         1 BLB       0.310000
     93 HA1         10.3850    -2.5800   -29.2630 hn         1 BLB       0.310000
     94 H2           8.6860    -0.3970   -26.9610 h1         1 BLB       0.062700
     95 HNC          8.6580     0.4070   -30.6040 hn         1 BLB       0.436000
     96 H3E          7.3330    -0.6910   -28.9380 h1         1 BLB       0.033200
     97 H3X          7.0590     0.8720   -28.2050 h1         1 BLB       0.033200
     98 HB1          8.8680     1.9110   -26.9040 hn         1 BLB       0.427500
     99 HB2          9.7770     1.9760   -28.2390 hn         1 BLB       0.427500
    100 HD2          4.9850    -1.7200   -30.9040 hn         1 BLB       0.314500
    101 HD1          5.8420    -2.4530   -32.2050 hn         1 BLB       0.314500
    102 H5E          5.1240     1.2480   -31.6120 hc         1 BLB       0.077200
    103 H5X          5.3510     0.3340   -30.1450 hc         1 BLB       0.077200
    104 H6           7.4540     1.9860   -31.6090 h1         1 BLB       0.105700
    105 HF2          3.1200     3.0470   -28.4000 hn         1 BLB       0.485500
    106 HF1          3.2420     4.6540   -27.8250 hn         1 BLB       0.485500
    107 HAA          5.7720     7.1580   -28.0440 hc         1 BLB       0.051700
    108 HAB          4.2080     6.6650   -28.6800 hc         1 BLB       0.051700
    109 HAC          4.7320     6.1060   -27.0970 hc         1 BLB       0.051700
    110 HNH          9.3760     4.5870   -29.5810 hn         1 BLB       0.385500
    111 H13         10.3850     7.1470   -28.5740 h1         1 BLB       0.113700
    112 H14         12.5400     6.3360   -29.3240 h1         1 BLB       0.075700
    113 H28         13.7470     5.0770   -31.4490 h4         1 BLB       0.168000
    114 H29         10.8720     2.0560   -31.9830 h5         1 BLB       0.080100
    115 HNI         13.0500     3.0440   -32.8070 hn         1 BLB       0.356000
    116 HNK          9.1410     6.0940   -31.5860 hn         1 BLB       0.323500
    117 H34         10.8950     5.1890   -33.2980 hc         1 BLB       0.070700
    118 HO2          8.4110     7.5670   -35.3850 ho         1 BLB       0.444000
    119 H31         10.6250     8.1350   -33.1110 h1         1 BLB       0.092700
    120 HBA          8.5210     9.2270   -33.8130 hc         1 BLB       0.045033
    121 HBB          7.5790     8.0970   -32.8270 hc         1 BLB       0.045033
    122 HBC          8.6610     9.2610   -32.0640 hc         1 BLB       0.045033
    123 H33          8.6150     5.9770   -33.8630 h1         1 BLB       0.031700
    124 HCB         12.3110     7.0480   -34.0830 hc         1 BLB       0.047033
    125 HCC         12.7760     5.5460   -34.8580 hc         1 BLB       0.047033
    126 HCA         11.8480     6.7420   -35.7570 hc         1 BLB       0.047033
    127 HNL          9.3880     3.6210   -33.5890 hn         1 BLB       0.336500
    128 H37          8.9380     2.5800   -36.3040 h1         1 BLB       0.092700
    129 H38          8.9820     0.2860   -35.4530 h1         1 BLB       0.026700
    130 HO3          8.7090     0.3880   -33.2530 ho         1 BLB       0.485000
    131 HDB         11.4140     0.0340   -35.2500 hc         1 BLB       0.047033
    132 HDC         11.0200     1.2260   -36.4870 hc         1 BLB       0.047033
    133 HDA         11.6020     1.7560   -34.9090 hc         1 BLB       0.047033
    134 HNM          6.8890     1.1940   -36.2810 hn         1 BLB       0.321500
    135 H2E          4.3630     2.7840   -36.7220 hc         1 BLB       0.078700
    136 H2X          4.8350     3.7310   -35.3190 hc         1 BLB       0.078700
    137 H1E          4.7820     0.6750   -35.4770 h1         1 BLB       0.058200
    138 H1X          5.1030     1.5810   -34.0090 h1         1 BLB       0.058200
    139 H44         -0.4760     2.4830   -34.7150 h4         1 BLB       0.165000
    140 HNP         -2.5370     2.6850   -31.5130 hn         1 BLB       0.335500
    141 H501        -4.0620     1.8910   -29.1350 h1         1 BLB       0.063200
    142 H502        -4.4860     3.4550   -29.8070 h1         1 BLB       0.063200
    143 H511        -5.9570     1.7880   -30.7280 hc         1 BLB       0.054700
    144 H512        -4.9500     2.4140   -32.0130 hc         1 BLB       0.054700
    145 H521        -3.4720     0.3830   -31.8430 hc         1 BLB       0.060700
    146 H522        -4.4810    -0.2290   -30.5430 hc         1 BLB       0.060700
    147 H531        -6.4530    -0.2460   -32.1380 h1         1 BLB       0.078700
    148 H532        -5.4260     0.3820   -33.3920 h1         1 BLB       0.078700
    149 HNR         -4.3990    -1.6210   -33.7020 hn         1 BLB       0.369000
    150 HNS1        -6.4700    -1.8660   -30.8130 hn         1 BLB       0.380000
    151 HNS2        -6.2490    -3.5590   -30.6960 hn         1 BLB       0.380000
    152 HNT1        -4.9390    -4.7040   -32.2340 hn         1 BLB       0.380000
    153 HNT2        -4.1600    -3.8570   -33.5100 hn         1 BLB       0.380000
    154 HO59        12.5160     0.3940   -27.3270 ho         1 BLB       0.540000
    155 HO58        12.9270     1.4970   -24.6370 ho         1 BLB       0.527000
    156 H611        15.2900     2.7280   -29.4860 h1         1 BLB       0.022200
    157 H612        14.7190     1.1810   -28.8810 h1         1 BLB       0.022200
    158 HO61        16.6660     1.8510   -27.8190 ho         1 BLB       0.497000
    159 H60         12.9640     2.7380   -29.0790 h1         1 BLB       0.059700
    160 H63         13.3130     5.9950   -27.2690 h2         1 BLB       0.076700
    161 H57         13.2150     5.1170   -25.1920 h1         1 BLB       0.061700
    162 H58         14.3720     3.1250   -25.6790 h1         1 BLB       0.073700
    163 H59         11.8120     2.3640   -27.1220 h1         1 BLB       0.084700
    164 H69          9.9670     3.1600   -23.8330 h1         1 BLB       0.074700
    165 H68          8.6750     4.1260   -25.6260 h1         1 BLB       0.103700
    166 H67          8.1010     6.4600   -23.7480 h1         1 BLB       0.063700
    167 H65          9.7180     6.2400   -26.3290 h1         1 BLB       0.085700
    168 H64         11.7680     4.9500   -23.6140 h2         1 BLB       0.079700
    169 HO67         6.7410     7.0500   -25.3590 ho         1 BLB       0.504000
    170 HO69        10.1830     4.3190   -21.8930 ho         1 BLB       0.509000
    171 NF           3.6040     3.9300   -28.4190 nv         1 BLB      -1.093900
    172 ND           5.6660    -1.6370   -31.6390 nt         1 BLB      -0.602000
    173 C66          9.4820     8.1630   -25.4540 c3         1 BLB       0.170600
    174 C42          4.3700     2.7940   -35.6320 c3         1 BLB      -0.141700
    175 NQ           5.3720     3.0280   -24.0930 nt         1 BLB      -0.607000
    176 O66         10.6330     8.6160   -26.1310 oh         1 BLB      -0.708000
    177 H47          1.0440     3.0940   -28.7310 h4         1 BLB       0.174000
    178 C49         -1.6410     2.7170   -29.7090 c          1 BLB       0.537600
    179 HNQ1         5.2510     3.3210   -23.1390 hn         1 BLB       0.325500
    180 HNQ2         4.6140     2.5420   -24.5400 hn         1 BLB       0.325500
    181 HO66        10.5400     9.5610   -26.2830 ho         1 BLB       0.505000
    182 H661         8.5720     8.4150   -26.0090 h1         1 BLB       0.025700
    183 H662         9.3910     8.6120   -24.4550 h1         1 BLB       0.025700
@<TRIPOS>BOND
     1     1     3 1   
     2     1    92 1   
     3     1    93 1   
     4     2     3 1   
     5     2     6 1   
     6     2     7 1   
     7     2    94 1   
     8     3     4 2   
     9     5     6 1   
    10     5    17 1   
    11     5    95 1   
    12     6    96 1   
    13     6    97 1   
    14     7    98 1   
    15     7    99 1   
    16     8     9 1   
    17     8    17 1   
    18     8   102 1   
    19     8   103 1   
    20     9    10 2   
    21     9   172 1   
    22    11    12 ar  
    23    11    16 ar  
    24    11   171 1   
    25    12    13 ar  
    26    12    18 1   
    27    13    14 ar  
    28    13    19 1   
    29    14    15 ar  
    30    15    16 ar  
    31    15    17 1   
    32    17   104 1   
    33    18   107 1   
    34    18   108 1   
    35    18   109 1   
    36    19    20 2   
    37    19    21 1   
    38    21    22 1   
    39    21   110 1   
    40    22    23 1   
    41    22    25 1   
    42    22   111 1   
    43    23    24 2   
    44    23    32 1   
    45    25    26 1   
    46    25    27 1   
    47    25   112 1   
    48    26    28 1   
    49    26    29 2   
    50    27    77 1   
    51    28    30 2   
    52    29    31 1   
    53    29   113 1   
    54    30    31 1   
    55    30   114 1   
    56    31   115 1   
    57    32    37 1   
    58    32   116 1   
    59    33    34 1   
    60    33    39 1   
    61    33    40 1   
    62    33   117 1   
    63    34    35 2   
    64    34    41 1   
    65    36    39 1   
    66    36   118 1   
    67    37    38 1   
    68    37    39 1   
    69    37   119 1   
    70    38   120 1   
    71    38   121 1   
    72    38   122 1   
    73    39   123 1   
    74    40   124 1   
    75    40   125 1   
    76    40   126 1   
    77    41    42 1   
    78    41   127 1   
    79    42    43 1   
    80    42    45 1   
    81    42   128 1   
    82    43    44 2   
    83    43    48 1   
    84    45    46 1   
    85    45    47 1   
    86    45   129 1   
    87    46   130 1   
    88    47   131 1   
    89    47   132 1   
    90    47   133 1   
    91    48    51 1   
    92    48   134 1   
    93    49   178 2   
    94    50    52 1   
    95    50    55 2   
    96    50   174 1   
    97    51   137 1   
    98    51   138 1   
    99    51   174 1   
   100    52    53 1   
   101    53    54 2   
   102    53   139 1   
   103    54    55 1   
   104    54    59 1   
   105    56    57 2   
   106    56    60 1   
   107    56   177 1   
   108    57    58 1   
   109    57   178 1   
   110    58    59 2   
   111    59    60 1   
   112    61    62 1   
   113    61   140 1   
   114    61   178 1   
   115    62    63 1   
   116    62   141 1   
   117    62   142 1   
   118    63    64 1   
   119    63   143 1   
   120    63   144 1   
   121    64    65 1   
   122    64   145 1   
   123    64   146 1   
   124    65    67 1   
   125    65   147 1   
   126    65   148 1   
   127    66    67 2   
   128    66    68 1   
   129    66    69 1   
   130    67   149 1   
   131    68   150 1   
   132    68   151 1   
   133    69   152 1   
   134    69   153 1   
   135    70    80 1   
   136    70   154 1   
   137    71    79 1   
   138    71   155 1   
   139    72    73 1   
   140    72    75 1   
   141    72   156 1   
   142    72   157 1   
   143    73   158 1   
   144    74    78 1   
   145    74    86 1   
   146    75    76 1   
   147    75    80 1   
   148    75   159 1   
   149    76    77 1   
   150    77    78 1   
   151    77   160 1   
   152    78    79 1   
   153    78   161 1   
   154    79    80 1   
   155    79   162 1   
   156    80   163 1   
   157    81    82 1   
   158    81    86 1   
   159    81    89 1   
   160    81   164 1   
   161    82    83 1   
   162    82    87 1   
   163    82   165 1   
   164    83    84 1   
   165    83    88 1   
   166    83   166 1   
   167    84    85 1   
   168    84   167 1   
   169    84   173 1   
   170    85    86 1   
   171    86   168 1   
   172    87    90 1   
   173    88   169 1   
   174    89   170 1   
   175    90    91 2   
   176    90   175 1   
   177   100   172 1   
   178   101   172 1   
   179   105   171 1   
   180   106   171 1   
   181   135   174 1   
   182   136   174 1   
   183   173   176 1   
   184   173   182 1   
   185   173   183 1   
   186   175   179 1   
   187   175   180 1   
   188   176   181 1   
@<TRIPOS>SUBSTRUCTURE
     1 BLB         1 TEMP              0 ****  ****    0 ROOT
