@<TRIPOS>MOLECULE
BLD
   82    85     1     0     0
SMALL
No Charge or Current Charge


@<TRIPOS>ATOM
      1 C01         -4.5610     1.5090    -0.8410 c6         1 BLD      -0.070400
      2 C02         -6.0740     1.8170    -0.7010 c6         1 BLD       0.132300
      3 O02         -6.4870     2.6900    -1.7660 oh         1 BLD      -0.665000
      4 C03         -6.9160     0.5120    -0.7270 c6         1 BLD       0.141300
      5 O03         -6.8220    -0.1280    -2.0070 oh         1 BLD      -0.657000
      6 C04         -6.4450    -0.4310     0.3960 c6         1 BLD      -0.061400
      7 C05         -4.9060    -0.7250     0.3660 c6         1 BLD      -0.157700
      8 C06         -4.5380    -1.6690     1.5490 c          1 BLD       0.664100
      9 O06         -5.1070    -1.5930     2.6300 o          1 BLD      -0.512000
     10 C07         -2.5520    -2.4050     0.3430 c3         1 BLD       0.174600
     11 O07         -3.5290    -2.5730     1.3760 os         1 BLD      -0.441100
     12 C08         -1.7770    -1.0570     0.5360 c6         1 BLD      -0.080700
     13 C09         -2.4730     0.1470    -0.2240 c6         1 BLD      -0.050700
     14 C10         -3.9590     0.5380     0.2510 c6         1 BLD      -0.017000
     15 C11         -1.5280     1.4100    -0.2620 c6         1 BLD      -0.074400
     16 C12         -0.0820     1.1210    -0.7320 c6         1 BLD      -0.064400
     17 C13          0.6040     0.0270     0.1330 c5         1 BLD      -0.038000
     18 C14         -0.3010    -1.2410     0.0370 c5         1 BLD      -0.065700
     19 C15          0.5720    -2.3110     0.7530 c5         1 BLD      -0.075400
     20 C16          2.0220    -1.9640     0.2980 c5         1 BLD      -0.077400
     21 C17          1.9200    -0.6010    -0.4820 c5         1 BLD      -0.050700
     22 C18          0.8220     0.5830     1.5840 c3         1 BLD      -0.081100
     23 C19         -3.9410     1.2780     1.6350 c3         1 BLD      -0.094100
     24 C20          3.2660     0.2190    -0.4490 c3         1 BLD      -0.076700
     25 C21          3.1660     1.6250    -1.1020 c3         1 BLD      -0.094100
     26 C22          4.4780    -0.6100    -1.0140 c3         1 BLD       0.137300
     27 O22          4.2890    -0.8470    -2.4220 oh         1 BLD      -0.649000
     28 C23          5.9070     0.0040    -0.8040 c3         1 BLD       0.139300
     29 O23          6.8580    -0.9120    -1.3690 oh         1 BLD      -0.647000
     30 C24          6.3120     0.3510     0.6750 c3         1 BLD      -0.084700
     31 C25          7.7180     1.0530     0.7810 c3         1 BLD      -0.052700
     32 C26          7.8360     2.3080    -0.1250 c3         1 BLD      -0.089600
     33 C27          8.0960     1.4400     2.2360 c3         1 BLD      -0.089600
     34 C28          6.1980    -0.8850     1.6170 c3         1 BLD      -0.095100
     35 H101        -4.3760     1.0980    -1.8430 hc         1 BLD       0.058700
     36 H201        -4.0420     2.4750    -0.8180 hc         1 BLD       0.058700
     37 H02         -6.2360     2.3150     0.2670 h1         1 BLD       0.042700
     38 HO02        -7.3180     3.1270    -1.4740 ho         1 BLD       0.445000
     39 H03         -7.9660     0.7750    -0.5310 h1         1 BLD       0.031700
     40 HO03        -6.7150     0.6130    -2.6460 ho         1 BLD       0.453000
     41 H104        -6.7250     0.0190     1.3580 hc         1 BLD       0.066200
     42 H204        -7.0060    -1.3740     0.3370 hc         1 BLD       0.066200
     43 H05         -4.7200    -1.2880    -0.5550 hc         1 BLD       0.081700
     44 H107        -1.8530    -3.2450     0.4110 h1         1 BLD       0.059700
     45 H207        -2.9850    -2.4630    -0.6640 h1         1 BLD       0.059700
     46 H08         -1.7470    -0.8510     1.6140 hc         1 BLD       0.071700
     47 H09         -2.5560    -0.1870    -1.2680 hc         1 BLD       0.046700
     48 H111        -1.9260     2.1680    -0.9450 hc         1 BLD       0.044200
     49 H211        -1.4850     1.8950     0.7200 hc         1 BLD       0.044200
     50 H112        -0.0990     0.8110    -1.7870 hc         1 BLD       0.043200
     51 H212         0.4770     2.0610    -0.6960 hc         1 BLD       0.043200
     52 H14         -0.4190    -1.5340    -1.0160 hc         1 BLD       0.047700
     53 H115         0.4700    -2.2550     1.8430 hc         1 BLD       0.044200
     54 H215         0.3070    -3.3340     0.4640 hc         1 BLD       0.044200
     55 H116         2.6840    -1.8910     1.1680 hc         1 BLD       0.043700
     56 H216         2.4360    -2.7530    -0.3420 hc         1 BLD       0.043700
     57 H17          1.7400    -0.8180    -1.5420 hc         1 BLD       0.060700
     58 H118        -0.1210     0.7590     2.1120 hc         1 BLD       0.034033
     59 H218         1.4100    -0.0940     2.2130 hc         1 BLD       0.034033
     60 H318         1.3620     1.5360     1.5630 hc         1 BLD       0.034033
     61 H119        -4.9470     1.4010     2.0490 hc         1 BLD       0.041367
     62 H219        -3.3500     0.7350     2.3810 hc         1 BLD       0.041367
     63 H319        -3.5190     2.2860     1.5580 hc         1 BLD       0.041367
     64 H20          3.4870     0.3970     0.6090 hc         1 BLD       0.054700
     65 H121         2.6020     2.3070    -0.4590 hc         1 BLD       0.035700
     66 H221         4.1470     2.0920    -1.2340 hc         1 BLD       0.035700
     67 H321         2.6760     1.5770    -2.0820 hc         1 BLD       0.035700
     68 H22          4.4860    -1.5800    -0.5000 h1         1 BLD       0.069700
     69 HO22         3.8390    -0.0560    -2.7870 ho         1 BLD       0.441000
     70 H23          5.9330     0.9330    -1.3850 h1         1 BLD       0.069700
     71 HO23         6.3890    -1.3110    -2.1370 ho         1 BLD       0.441000
     72 H24          5.5850     1.0880     1.0380 hc         1 BLD       0.052700
     73 H25          8.4780     0.3400     0.4390 hc         1 BLD       0.055700
     74 H126         7.0260     3.0180     0.0830 hc         1 BLD       0.033200
     75 H226         8.7900     2.8220     0.0440 hc         1 BLD       0.033200
     76 H326         7.8040     2.0410    -1.1870 hc         1 BLD       0.033200
     77 H127         8.2480     0.5530     2.8610 hc         1 BLD       0.033200
     78 H227         9.0350     2.0070     2.2570 hc         1 BLD       0.033200
     79 H327         7.3150     2.0610     2.6920 hc         1 BLD       0.033200
     80 H128         6.9550    -1.6380     1.3710 hc         1 BLD       0.035033
     81 H228         6.3240    -0.6010     2.6670 hc         1 BLD       0.035033
     82 H328         5.2120    -1.3550     1.5480 hc         1 BLD       0.035033
@<TRIPOS>BOND
     1     1     2 1   
     2     1    14 1   
     3     1    35 1   
     4     1    36 1   
     5     2     3 1   
     6     2     4 1   
     7     2    37 1   
     8     3    38 1   
     9     4     5 1   
    10     4     6 1   
    11     4    39 1   
    12     5    40 1   
    13     6     7 1   
    14     6    41 1   
    15     6    42 1   
    16     7     8 1   
    17     7    14 1   
    18     7    43 1   
    19     8     9 2   
    20     8    11 1   
    21    10    11 1   
    22    10    12 1   
    23    10    44 1   
    24    10    45 1   
    25    12    13 1   
    26    12    18 1   
    27    12    46 1   
    28    13    14 1   
    29    13    15 1   
    30    13    47 1   
    31    14    23 1   
    32    15    16 1   
    33    15    48 1   
    34    15    49 1   
    35    16    17 1   
    36    16    50 1   
    37    16    51 1   
    38    17    18 1   
    39    17    21 1   
    40    17    22 1   
    41    18    19 1   
    42    18    52 1   
    43    19    20 1   
    44    19    53 1   
    45    19    54 1   
    46    20    21 1   
    47    20    55 1   
    48    20    56 1   
    49    21    24 1   
    50    21    57 1   
    51    22    58 1   
    52    22    59 1   
    53    22    60 1   
    54    23    61 1   
    55    23    62 1   
    56    23    63 1   
    57    24    25 1   
    58    24    26 1   
    59    24    64 1   
    60    25    65 1   
    61    25    66 1   
    62    25    67 1   
    63    26    27 1   
    64    26    28 1   
    65    26    68 1   
    66    27    69 1   
    67    28    29 1   
    68    28    30 1   
    69    28    70 1   
    70    29    71 1   
    71    30    31 1   
    72    30    34 1   
    73    30    72 1   
    74    31    32 1   
    75    31    33 1   
    76    31    73 1   
    77    32    74 1   
    78    32    75 1   
    79    32    76 1   
    80    33    77 1   
    81    33    78 1   
    82    33    79 1   
    83    34    80 1   
    84    34    81 1   
    85    34    82 1   
@<TRIPOS>SUBSTRUCTURE
     1 BLD         1 TEMP              0 ****  ****    0 ROOT
