@<TRIPOS>MOLECULE
BLD
   82    85     1     0     0
SMALL
abcg2


@<TRIPOS>ATOM
      1 C01         -4.3830     1.5460    -0.6690 c6         1 BLD      -0.070400
      2 C02         -5.8670     1.8500    -0.6040 c6         1 BLD       0.132300
      3 O02         -6.1420     2.7890    -1.6280 oh         1 BLD      -0.665000
      4 C03         -6.6830     0.5790    -0.7790 c6         1 BLD       0.141300
      5 O03         -6.4660    -0.0210    -2.0370 oh         1 BLD      -0.657000
      6 C04         -6.2870    -0.3860     0.3140 c6         1 BLD      -0.061400
      7 C05         -4.7930    -0.7310     0.3280 c6         1 BLD      -0.157700
      8 C06         -4.5640    -1.6490     1.5140 c          1 BLD       0.664100
      9 O06         -5.3370    -1.7480     2.4360 o          1 BLD      -0.512000
     10 C07         -2.4430    -2.3120     0.5820 c3         1 BLD       0.174600
     11 O07         -3.4770    -2.4040     1.5590 os         1 BLD      -0.441100
     12 C08         -1.6840    -0.9960     0.6310 c6         1 BLD      -0.080700
     13 C09         -2.4040     0.1470    -0.1220 c6         1 BLD      -0.050700
     14 C10         -3.8480     0.5170     0.3550 c6         1 BLD      -0.017000
     15 C11         -1.4960     1.3880    -0.1950 c6         1 BLD      -0.074400
     16 C12         -0.0950     1.1150    -0.7420 c6         1 BLD      -0.064400
     17 C13          0.6130     0.0200     0.0470 c5         1 BLD      -0.038000
     18 C14         -0.3090    -1.2120    -0.0070 c5         1 BLD      -0.065700
     19 C15          0.5640    -2.3540     0.5120 c5         1 BLD      -0.075400
     20 C16          1.9830    -1.9820     0.0420 c5         1 BLD      -0.077400
     21 C17          1.8960    -0.5700    -0.5880 c5         1 BLD      -0.050700
     22 C18          0.8890     0.4720     1.4840 c3         1 BLD      -0.081100
     23 C19         -3.8340     1.1340     1.7590 c3         1 BLD      -0.094100
     24 C20          3.2120     0.2120    -0.4510 c3         1 BLD      -0.076700
     25 C21          3.1240     1.6180    -1.0460 c3         1 BLD      -0.094100
     26 C22          4.3750    -0.5910    -1.0640 c3         1 BLD       0.137300
     27 O22          4.1700    -0.8280    -2.4440 oh         1 BLD      -0.649000
     28 C23          5.7730     0.0160    -0.8390 c3         1 BLD       0.139300
     29 O23          6.7630    -0.8420    -1.3740 oh         1 BLD      -0.647000
     30 C24          6.0850     0.4050     0.6170 c3         1 BLD      -0.084700
     31 C25          7.4810     1.0470     0.7560 c3         1 BLD      -0.052700
     32 C26          7.6930     2.2020    -0.2220 c3         1 BLD      -0.089600
     33 C27          7.7270     1.5500     2.1790 c3         1 BLD      -0.089600
     34 C28          5.9170    -0.7800     1.5710 c3         1 BLD      -0.095100
     35 H101        -4.1490     1.1910    -1.6780 hc         1 BLD       0.058700
     36 H201        -3.8490     2.4890    -0.5400 hc         1 BLD       0.058700
     37 H02         -6.1180     2.2710     0.3790 h1         1 BLD       0.042700
     38 HO02        -7.0420     3.1120    -1.5090 ho         1 BLD       0.445000
     39 H03         -7.7500     0.8200    -0.6490 h1         1 BLD       0.031700
     40 HO03        -6.5610     0.6650    -2.7070 ho         1 BLD       0.453000
     41 H104        -6.5830     0.0600     1.2650 hc         1 BLD       0.066200
     42 H204        -6.8690    -1.3060     0.2220 hc         1 BLD       0.066200
     43 H05         -4.5730    -1.2840    -0.5920 hc         1 BLD       0.081700
     44 H107        -1.7870    -3.1420     0.8350 h1         1 BLD       0.059700
     45 H207        -2.8340    -2.5080    -0.4210 h1         1 BLD       0.059700
     46 H08         -1.5390    -0.7340     1.6870 hc         1 BLD       0.071700
     47 H09         -2.5240    -0.2210    -1.1520 hc         1 BLD       0.046700
     48 H111        -1.9490     2.1460    -0.8320 hc         1 BLD       0.044200
     49 H211        -1.4110     1.8410     0.7950 hc         1 BLD       0.044200
     50 H112        -0.1670     0.8030    -1.7900 hc         1 BLD       0.043200
     51 H212         0.4620     2.0540    -0.7370 hc         1 BLD       0.043200
     52 H14         -0.4860    -1.4060    -1.0750 hc         1 BLD       0.047700
     53 H115         0.5110    -2.4230     1.6020 hc         1 BLD       0.044200
     54 H215         0.2570    -3.3250     0.1220 hc         1 BLD       0.044200
     55 H116         2.6810    -1.9840     0.8840 hc         1 BLD       0.043700
     56 H216         2.3670    -2.7100    -0.6730 hc         1 BLD       0.043700
     57 H17          1.6910    -0.6830    -1.6590 hc         1 BLD       0.060700
     58 H118        -0.0170     0.7730     2.0090 hc         1 BLD       0.034033
     59 H218         1.3590    -0.3090     2.0830 hc         1 BLD       0.034033
     60 H318         1.5560     1.3360     1.4960 hc         1 BLD       0.034033
     61 H119        -4.8400     1.2980     2.1490 hc         1 BLD       0.041367
     62 H219        -3.3090     0.5060     2.4820 hc         1 BLD       0.041367
     63 H319        -3.3340     2.1020     1.7540 hc         1 BLD       0.041367
     64 H20          3.4220     0.3100     0.6190 hc         1 BLD       0.054700
     65 H121         2.4590     2.2510    -0.4620 hc         1 BLD       0.035700
     66 H221         4.0890     2.1270    -1.0650 hc         1 BLD       0.035700
     67 H321         2.7360     1.6040    -2.0660 hc         1 BLD       0.035700
     68 H22          4.3740    -1.5880    -0.6120 h1         1 BLD       0.069700
     69 HO22         4.3000    -0.0020    -2.9210 ho         1 BLD       0.441000
     70 H23          5.8330     0.9210    -1.4510 h1         1 BLD       0.069700
     71 HO23         6.7420    -1.6750    -0.8900 ho         1 BLD       0.441000
     72 H24          5.3600     1.1770     0.9020 hc         1 BLD       0.052700
     73 H25          8.2320     0.2780     0.5430 hc         1 BLD       0.055700
     74 H126         6.8930     2.9430    -0.1360 hc         1 BLD       0.033200
     75 H226         8.6350     2.7110    -0.0120 hc         1 BLD       0.033200
     76 H326         7.7340     1.8740    -1.2600 hc         1 BLD       0.033200
     77 H127         7.7130     0.7510     2.9200 hc         1 BLD       0.033200
     78 H227         8.7040     2.0310     2.2470 hc         1 BLD       0.033200
     79 H327         6.9770     2.2890     2.4710 hc         1 BLD       0.033200
     80 H128         6.6760    -1.5480     1.4010 hc         1 BLD       0.035033
     81 H228         6.0090    -0.4700     2.6100 hc         1 BLD       0.035033
     82 H328         4.9390    -1.2540     1.4790 hc         1 BLD       0.035033
@<TRIPOS>BOND
     1     1     2 1   
     2     1    14 1   
     3     1    35 1   
     4     1    36 1   
     5     2     3 1   
     6     2     4 1   
     7     2    37 1   
     8     3    38 1   
     9     4     5 1   
    10     4     6 1   
    11     4    39 1   
    12     5    40 1   
    13     6     7 1   
    14     6    41 1   
    15     6    42 1   
    16     7     8 1   
    17     7    14 1   
    18     7    43 1   
    19     8     9 2   
    20     8    11 1   
    21    10    11 1   
    22    10    12 1   
    23    10    44 1   
    24    10    45 1   
    25    12    13 1   
    26    12    18 1   
    27    12    46 1   
    28    13    14 1   
    29    13    15 1   
    30    13    47 1   
    31    14    23 1   
    32    15    16 1   
    33    15    48 1   
    34    15    49 1   
    35    16    17 1   
    36    16    50 1   
    37    16    51 1   
    38    17    18 1   
    39    17    21 1   
    40    17    22 1   
    41    18    19 1   
    42    18    52 1   
    43    19    20 1   
    44    19    53 1   
    45    19    54 1   
    46    20    21 1   
    47    20    55 1   
    48    20    56 1   
    49    21    24 1   
    50    21    57 1   
    51    22    58 1   
    52    22    59 1   
    53    22    60 1   
    54    23    61 1   
    55    23    62 1   
    56    23    63 1   
    57    24    25 1   
    58    24    26 1   
    59    24    64 1   
    60    25    65 1   
    61    25    66 1   
    62    25    67 1   
    63    26    27 1   
    64    26    28 1   
    65    26    68 1   
    66    27    69 1   
    67    28    29 1   
    68    28    30 1   
    69    28    70 1   
    70    29    71 1   
    71    30    31 1   
    72    30    34 1   
    73    30    72 1   
    74    31    32 1   
    75    31    33 1   
    76    31    73 1   
    77    32    74 1   
    78    32    75 1   
    79    32    76 1   
    80    33    77 1   
    81    33    78 1   
    82    33    79 1   
    83    34    80 1   
    84    34    81 1   
    85    34    82 1   
@<TRIPOS>SUBSTRUCTURE
     1 BLD         1 TEMP              0 ****  ****    0 ROOT
