@<TRIPOS>MOLECULE
BLF
   69    74     1     0     0
SMALL
bcc


@<TRIPOS>ATOM
      1 CL1         -4.5200     0.5170     4.0350 cl         1 BLF      -0.109400
      2 C2          -3.3650     0.5790     2.7410 ca         1 BLF       0.064400
      3 CL2         -5.0870    -2.6360     1.6000 cl         1 BLF      -0.105400
      4 C3          -2.0460     0.2930     3.0130 ca         1 BLF      -0.153000
      5 C5          -1.1700     0.3490     1.9300 ca         1 BLF      -0.030200
      6 N6           0.1680     0.1010     1.8770 na         1 BLF      -0.168400
      7 C8           0.6020     0.2150     0.5810 cc         1 BLF      -0.135300
      8 C9          -0.4540     0.5630    -0.2250 cd         1 BLF       0.016600
      9 C10         -1.5970     0.6670     0.6280 ca         1 BLF      -0.100800
     10 C11         -2.9420     0.9650     0.4020 ca         1 BLF      -0.047000
     11 C13         -3.8230     0.9200     1.4580 ca         1 BLF      -0.153000
     12 C15         -0.4620     0.7440    -1.6700 cd         1 BLF      -0.134400
     13 N16         -0.4990    -0.3250    -2.5300 na         1 BLF      -0.166900
     14 C17         -0.5720     0.1700    -3.7810 cd         1 BLF       0.401400
     15 N19         -0.5870     1.4740    -3.7890 nc         1 BLF      -0.674000
     16 C20         -0.5240     1.8610    -2.4770 cc         1 BLF       0.380800
     17 C21         -0.5300     3.2800    -2.1150 ca         1 BLF      -0.100500
     18 C22         -0.7700     4.2400    -3.1040 ca         1 BLF      -0.112000
     19 C24         -0.7840     5.5930    -2.7980 ca         1 BLF      -0.136500
     20 C26         -0.5580     6.0220    -1.4960 ca         1 BLF      -0.129000
     21 C28         -0.3150     5.0790    -0.5060 ca         1 BLF      -0.136500
     22 C30         -0.2980     3.7260    -0.8100 ca         1 BLF      -0.112000
     23 C32         -0.4970    -1.7280    -2.1610 c3         1 BLF       0.093600
     24 C35         -1.6540    -2.0590    -1.2560 ca         1 BLF      -0.109300
     25 C36         -1.4310    -2.5450     0.0240 ca         1 BLF      -0.099500
     26 C38         -2.4820    -2.7430     0.9070 ca         1 BLF      -0.123000
     27 C40         -3.7700    -2.4590     0.4880 ca         1 BLF       0.039400
     28 C41         -4.0240    -2.0140    -0.8000 ca         1 BLF      -0.123000
     29 C43         -2.9610    -1.8160    -1.6650 ca         1 BLF      -0.099500
     30 C46          2.0140     0.0450     0.1720 c          1 BLF       0.696300
     31 O47          2.2950    -0.2690    -0.9760 o          1 BLF      -0.578100
     32 N48          2.9310     0.2810     1.1240 ns         1 BLF      -0.577900
     33 C50          4.3520     0.1480     0.8850 c3         1 BLF       0.101000
     34 C53          4.8420    -1.2780     1.1270 c3         1 BLF       0.150800
     35 N56          6.2600    -1.4020     0.8560 n3         1 BLF      -0.721600
     36 C57          6.5510    -1.4820    -0.5660 c6         1 BLF       0.126800
     37 C60          8.0500    -1.5540    -0.7890 c6         1 BLF       0.129400
     38 O63          8.6240    -2.6500    -0.1110 os         1 BLF      -0.402600
     39 C64          8.3450    -2.5840     1.2700 c6         1 BLF       0.129400
     40 C67          6.8520    -2.5400     1.5360 c6         1 BLF       0.126800
     41 H3          -1.7110     0.0320     4.0070 ha         1 BLF       0.149000
     42 H11         -3.2930     1.2160    -0.5910 ha         1 BLF       0.152000
     43 H13         -4.8720     1.1330     1.3030 ha         1 BLF       0.151000
     44 H17         -0.6100    -0.4710    -4.6500 h5         1 BLF       0.054100
     45 H22         -0.9490     3.9210    -4.1210 ha         1 BLF       0.140000
     46 H24         -0.9730     6.3150    -3.5820 ha         1 BLF       0.126000
     47 H26         -0.5700     7.0770    -1.2580 ha         1 BLF       0.127000
     48 H28         -0.1310     5.3960     0.5130 ha         1 BLF       0.126000
     49 H30         -0.0980     3.0170    -0.0190 ha         1 BLF       0.140000
     50 H32         -0.5460    -2.3010    -3.0880 h1         1 BLF       0.073200
     51 H32A         0.4500    -1.9700    -1.6810 h1         1 BLF       0.073200
     52 H36         -0.4200    -2.7420     0.3580 ha         1 BLF       0.136500
     53 H38         -2.2920    -3.0880     1.9140 ha         1 BLF       0.148500
     54 H41         -5.0350    -1.8010    -1.1190 ha         1 BLF       0.148500
     55 H43         -3.1610    -1.4400    -2.6620 ha         1 BLF       0.136500
     56 HN48         2.6450     0.6530     2.0140 hn         1 BLF       0.313500
     57 H50          4.5700     0.4750    -0.1320 h1         1 BLF       0.065200
     58 H50A         4.8690     0.8280     1.5610 h1         1 BLF       0.065200
     59 H53          4.6680    -1.5270     2.1760 h1         1 BLF       0.037200
     60 H53A         4.2440    -1.9860     0.5300 h1         1 BLF       0.037200
     61 H57          6.0660    -2.3610    -1.0260 h1         1 BLF       0.043200
     62 H57A         6.1700    -0.5990    -1.0830 h1         1 BLF       0.043200
     63 H60          8.2640    -1.6780    -1.8510 h1         1 BLF       0.051700
     64 H60A         8.5110    -0.6130    -0.4570 h1         1 BLF       0.051700
     65 H64          8.7830    -3.4680     1.7360 h1         1 BLF       0.051700
     66 H64A         8.8180    -1.6960     1.7140 h1         1 BLF       0.051700
     67 H67          6.6870    -2.4470     2.6120 h1         1 BLF       0.043200
     68 H67A         6.3950    -3.4930     1.2170 h1         1 BLF       0.043200
     69 HN6          0.7150    -0.2470     2.6490 hn         1 BLF       0.301700
@<TRIPOS>BOND
     1     1     2 1   
     2     2     4 ar  
     3     2    11 ar  
     4     3    27 1   
     5     4     5 ar  
     6     4    41 1   
     7     5     6 1   
     8     5     9 ar  
     9     6     7 1   
    10     6    69 1   
    11     7     8 2   
    12     7    30 1   
    13     8     9 1   
    14     8    12 1   
    15     9    10 ar  
    16    10    11 ar  
    17    10    42 1   
    18    11    43 1   
    19    12    13 1   
    20    12    16 2   
    21    13    14 1   
    22    13    23 1   
    23    14    15 2   
    24    14    44 1   
    25    15    16 1   
    26    16    17 1   
    27    17    18 ar  
    28    17    22 ar  
    29    18    19 ar  
    30    18    45 1   
    31    19    20 ar  
    32    19    46 1   
    33    20    21 ar  
    34    20    47 1   
    35    21    22 ar  
    36    21    48 1   
    37    22    49 1   
    38    23    24 1   
    39    23    50 1   
    40    23    51 1   
    41    24    25 ar  
    42    24    29 ar  
    43    25    26 ar  
    44    25    52 1   
    45    26    27 ar  
    46    26    53 1   
    47    27    28 ar  
    48    28    29 ar  
    49    28    54 1   
    50    29    55 1   
    51    30    31 2   
    52    30    32 1   
    53    32    33 1   
    54    32    56 1   
    55    33    34 1   
    56    33    57 1   
    57    33    58 1   
    58    34    35 1   
    59    34    59 1   
    60    34    60 1   
    61    35    36 1   
    62    35    40 1   
    63    36    37 1   
    64    36    61 1   
    65    36    62 1   
    66    37    38 1   
    67    37    63 1   
    68    37    64 1   
    69    38    39 1   
    70    39    40 1   
    71    39    65 1   
    72    39    66 1   
    73    40    67 1   
    74    40    68 1   
@<TRIPOS>SUBSTRUCTURE
     1 BLF         1 TEMP              0 ****  ****    0 ROOT
