@<TRIPOS>MOLECULE
BLF
   69    74     1     0     0
SMALL
No Charge or Current Charge


@<TRIPOS>ATOM
      1 Cl1         -4.8970     2.1600     3.4730 cl         1 BLF      -0.201000
      2 C2          -3.6220     1.8980     2.2900 ca         1 BLF       0.156000
      3 Cl2         -3.0120    -3.1700     2.7180 cl         1 BLF      -0.197000
      4 C3          -2.3410     1.5000     2.7200 ca         1 BLF      -0.135000
      5 C5          -1.3570     1.2980     1.7440 ca         1 BLF      -0.030200
      6 N6          -0.0590     0.8580     1.9140 na         1 BLF      -0.218700
      7 C8           0.6020     0.7570     0.6610 cc         1 BLF      -0.135300
      8 C9          -0.3840     1.1210    -0.2690 cd         1 BLF       0.016600
      9 C10         -1.6090     1.4880     0.4150 ca         1 BLF      -0.100800
     10 C11         -2.8880     1.8410    -0.0470 ca         1 BLF      -0.029000
     11 C13         -3.8980     2.0610     0.9140 ca         1 BLF      -0.135000
     12 C15         -0.1870     1.0170    -1.7020 cd         1 BLF      -0.119800
     13 N16          0.2930    -0.0920    -2.4020 na         1 BLF      -0.145500
     14 C17          0.1260     0.1990    -3.7530 cd         1 BLF       0.401400
     15 N19         -0.4770     1.3710    -3.9270 nc         1 BLF      -0.674000
     16 C20         -0.6810     1.8600    -2.6690 cc         1 BLF       0.315500
     17 C21         -1.2630     3.1840    -2.4030 ca         1 BLF      -0.100500
     18 C22         -2.2980     3.6750    -3.2280 ca         1 BLF      -0.094000
     19 C24         -2.8420     4.9530    -3.0100 ca         1 BLF      -0.118500
     20 C26         -2.3400     5.7660    -1.9820 ca         1 BLF      -0.111000
     21 C28         -1.2840     5.3050    -1.1810 ca         1 BLF      -0.118500
     22 C30         -0.7390     4.0280    -1.3980 ca         1 BLF      -0.094000
     23 C32          0.6110    -1.4440    -1.8820 c3         1 BLF       0.122900
     24 C35         -0.3060    -1.9320    -0.7600 ca         1 BLF      -0.109300
     25 C36          0.2460    -2.5200     0.3970 ca         1 BLF      -0.081500
     26 C38         -0.5860    -2.9040     1.4620 ca         1 BLF      -0.105000
     27 C40         -1.9740    -2.7090     1.3750 ca         1 BLF       0.131000
     28 C41         -2.5350    -2.1480     0.2180 ca         1 BLF      -0.105000
     29 C43         -1.7050    -1.7670    -0.8500 ca         1 BLF      -0.081500
     30 C46          2.0420     0.4810     0.3840 c          1 BLF       0.629300
     31 O47          2.6110     0.6710    -0.6810 o          1 BLF      -0.578100
     32 N48          2.7260     0.0070     1.4830 ns         1 BLF      -0.510900
     33 C50          4.1440    -0.3810     1.4750 c3         1 BLF       0.101000
     34 C53          4.3960    -1.7140     0.7250 c3         1 BLF       0.150800
     35 N56          5.7940    -2.2160     0.7860 n3         1 BLF      -0.721600
     36 C57          6.7960    -1.3020     0.1460 c6         1 BLF       0.126800
     37 C60          8.2420    -1.8770     0.2300 c6         1 BLF       0.152600
     38 O63          8.2900    -3.2070    -0.3400 os         1 BLF      -0.449000
     39 C64          7.3870    -4.1270     0.3180 c6         1 BLF       0.152600
     40 C67          5.9230    -3.6010     0.2320 c6         1 BLF       0.126800
     41 H3          -2.1300     1.3450     3.7750 ha         1 BLF       0.131000
     42 H11         -3.1140     1.9190    -1.1060 ha         1 BLF       0.134000
     43 H13         -4.8980     2.3420     0.5930 ha         1 BLF       0.133000
     44 H17          0.4060    -0.5030    -4.5300 h5         1 BLF       0.054100
     45 H22         -2.6930     3.0570    -4.0310 ha         1 BLF       0.122000
     46 H24         -3.6510     5.3130    -3.6420 ha         1 BLF       0.108000
     47 H26         -2.7600     6.7550    -1.8140 ha         1 BLF       0.109000
     48 H28         -0.8810     5.9400    -0.3950 ha         1 BLF       0.108000
     49 H30          0.0940     3.6980    -0.7820 ha         1 BLF       0.122000
     50 H32          0.5350    -2.1570    -2.7130 h1         1 BLF       0.073200
     51 H32A         1.6560    -1.4650    -1.5520 h1         1 BLF       0.073200
     52 H36          1.3210    -2.6620     0.4800 ha         1 BLF       0.118500
     53 H38         -0.1560    -3.3440     2.3580 ha         1 BLF       0.130500
     54 H41         -3.6090    -2.0010     0.1520 ha         1 BLF       0.130500
     55 H43         -2.1480    -1.3180    -1.7370 ha         1 BLF       0.118500
     56 HN48         2.1950    -0.1410     2.3290 hn         1 BLF       0.313500
     57 H50          4.7250     0.4250     1.0090 h1         1 BLF       0.065200
     58 H50A         4.4830    -0.4850     2.5130 h1         1 BLF       0.065200
     59 H53          3.7280    -2.4660     1.1650 h1         1 BLF       0.037200
     60 H53A         4.0920    -1.5920    -0.3230 h1         1 BLF       0.037200
     61 H57          6.5430    -1.1390    -0.9120 h1         1 BLF       0.043200
     62 H57A         6.7920    -0.3170     0.6340 h1         1 BLF       0.043200
     63 H60          8.9360    -1.2250    -0.3180 h1         1 BLF       0.051700
     64 H60A         8.5680    -1.9200     1.2790 h1         1 BLF       0.051700
     65 H64          7.4600    -5.1120    -0.1640 h1         1 BLF       0.051700
     66 H64A         7.6850    -4.2380     1.3710 h1         1 BLF       0.051700
     67 H67          5.2680    -4.2940     0.7800 h1         1 BLF       0.043200
     68 H67A         5.6050    -3.6210    -0.8210 h1         1 BLF       0.043200
     69 HN6          0.3650     0.6990     2.8210 hn         1 BLF       0.352000
@<TRIPOS>BOND
     1     1     2 1   
     2     2     4 ar  
     3     2    11 ar  
     4     3    27 1   
     5     4     5 ar  
     6     4    41 1   
     7     5     6 1   
     8     5     9 ar  
     9     6     7 1   
    10     6    69 1   
    11     7     8 2   
    12     7    30 1   
    13     8     9 1   
    14     8    12 1   
    15     9    10 ar  
    16    10    11 ar  
    17    10    42 1   
    18    11    43 1   
    19    12    13 1   
    20    12    16 2   
    21    13    14 1   
    22    13    23 1   
    23    14    15 2   
    24    14    44 1   
    25    15    16 1   
    26    16    17 1   
    27    17    18 ar  
    28    17    22 ar  
    29    18    19 ar  
    30    18    45 1   
    31    19    20 ar  
    32    19    46 1   
    33    20    21 ar  
    34    20    47 1   
    35    21    22 ar  
    36    21    48 1   
    37    22    49 1   
    38    23    24 1   
    39    23    50 1   
    40    23    51 1   
    41    24    25 ar  
    42    24    29 ar  
    43    25    26 ar  
    44    25    52 1   
    45    26    27 ar  
    46    26    53 1   
    47    27    28 ar  
    48    28    29 ar  
    49    28    54 1   
    50    29    55 1   
    51    30    31 2   
    52    30    32 1   
    53    32    33 1   
    54    32    56 1   
    55    33    34 1   
    56    33    57 1   
    57    33    58 1   
    58    34    35 1   
    59    34    59 1   
    60    34    60 1   
    61    35    36 1   
    62    35    40 1   
    63    36    37 1   
    64    36    61 1   
    65    36    62 1   
    66    37    38 1   
    67    37    63 1   
    68    37    64 1   
    69    38    39 1   
    70    39    40 1   
    71    39    65 1   
    72    39    66 1   
    73    40    67 1   
    74    40    68 1   
@<TRIPOS>SUBSTRUCTURE
     1 BLF         1 TEMP              0 ****  ****    0 ROOT
