@<TRIPOS>MOLECULE
BLG
   63    64     1     0     0
SMALL
No Charge or Current Charge


@<TRIPOS>ATOM
      1 C1          -2.0520     0.9170     0.2020 c6         1 BLG       0.372300
      2 C2          -3.5190     1.1650    -0.2640 c6         1 BLG       0.079700
      3 C3          -4.3930    -0.0230     0.2460 c6         1 BLG       0.167300
      4 C4          -3.8180    -1.4020    -0.2290 c6         1 BLG       0.157300
      5 C5          -2.3320    -1.4850     0.2280 c6         1 BLG       0.171300
      6 O5          -1.5950    -0.3520    -0.2940 os         1 BLG      -0.485000
      7 O1          -1.1770     1.9490    -0.2860 os         1 BLG      -0.414000
      8 N2          -4.0520     2.4650     0.2190 ns         1 BLG      -0.488900
      9 C7          -3.9380     3.6710    -0.4320 c          1 BLG       0.608100
     10 O7          -3.4050     3.7870    -1.5250 o          1 BLG      -0.593100
     11 C8          -4.5440     4.8550     0.3130 c3         1 BLG      -0.181100
     12 O3          -5.7700     0.1490    -0.1530 oh         1 BLG      -0.683000
     13 O4          -4.5740    -2.4950     0.3500 os         1 BLG      -0.604700
     14 S4          -5.6490    -3.2950    -0.5940 s6         1 BLG       1.489300
     15 O41         -6.5660    -2.2240    -1.0040 o          1 BLG      -0.691867
     16 O42         -6.2330    -4.2980     0.3030 o          1 BLG      -0.691867
     17 O43         -4.8270    -3.8410    -1.6800 o          1 BLG      -0.691867
     18 C6          -1.6310    -2.7970    -0.2570 c3         1 BLG       0.163600
     19 O6          -0.2350    -2.8760     0.1160 oh         1 BLG      -0.746000
     20 CA           0.7800     3.3590    -0.2680 c5         1 BLG       0.101300
     21 CB           0.0870     2.1340     0.3910 c5         1 BLG       0.174300
     22 CG           1.0670     0.9870     0.0330 c5         1 BLG      -0.115400
     23 CD           2.4070     1.6030     0.5170 c5         1 BLG      -0.005700
     24 N            2.2850     3.0350    -0.0810 ny         1 BLG      -0.820000
     25 C9           0.4170     4.7200     0.3730 c3         1 BLG       0.147600
     26 O9           1.1870     5.7670    -0.2420 oh         1 BLG      -0.669000
     27 C10          3.6180     0.7790    -0.0290 c          1 BLG       0.583100
     28 O10          4.1550     0.9190    -1.1200 o          1 BLG      -0.604100
     29 N3           4.0520    -0.0980     0.9400 ns         1 BLG      -0.441900
     30 C11          5.2130    -0.9760     0.8010 c3         1 BLG       0.129000
     31 C12          6.5020    -0.2280     1.1750 c3         1 BLG      -0.385400
     32 S            7.9540    -1.2830     1.0460 s6         1 BLG       1.319600
     33 OS1          7.9630    -1.6940    -0.3650 o          1 BLG      -0.682867
     34 OS2          7.6810    -2.3680     1.9990 o          1 BLG      -0.682867
     35 OS3          9.0580    -0.3940     1.4320 o          1 BLG      -0.682867
     36 H1          -2.0230     0.9140     1.3010 h2         1 BLG       0.013700
     37 H2          -3.5290     1.1640    -1.3640 h1         1 BLG       0.123700
     38 H3          -4.3470    -0.0160     1.3450 h1         1 BLG       0.027700
     39 H4          -3.8420    -1.4540    -1.3290 h1         1 BLG       0.079700
     40 H5          -2.2860    -1.4620     1.3270 h1         1 BLG       0.053700
     41 HN2         -4.5550     2.4770     1.0980 hn         1 BLG       0.303500
     42 H81         -4.4420     5.7970    -0.2370 hc         1 BLG       0.054033
     43 H82         -5.5920     4.6330     0.5440 hc         1 BLG       0.054033
     44 H83         -4.0930     4.9170     1.3100 hc         1 BLG       0.054033
     45 HO3         -6.1060    -0.7530    -0.4280 ho         1 BLG       0.519000
     46 H61         -2.1820    -3.6500     0.1620 h1         1 BLG       0.060700
     47 H62         -1.7370    -2.8520    -1.3500 h1         1 BLG       0.060700
     48 HO6          0.1220    -3.7070    -0.2770 ho         1 BLG       0.508000
     49 HA           0.5540     3.4170    -1.3380 hx         1 BLG       0.138700
     50 HB          -0.0570     2.2560     1.4730 h1         1 BLG       0.049700
     51 HG1          0.8350     0.0520     0.5560 hc         1 BLG       0.120200
     52 HG2          1.0690     0.7750    -1.0420 hc         1 BLG       0.120200
     53 HD           2.4880     1.6700     1.6060 hx         1 BLG       0.101700
     54 HN1          2.7710     3.7640     0.4860 hn         1 BLG       0.517500
     55 HN2A         2.7940     3.1120    -0.9900 hn         1 BLG       0.517500
     56 H91         -0.6590     4.8970     0.2350 h1         1 BLG       0.056700
     57 H92          0.6150     4.6740     1.4530 h1         1 BLG       0.056700
     58 HO9          0.8860     6.6190     0.1490 ho         1 BLG       0.472000
     59 HN3          3.5360    -0.1210     1.8120 hn         1 BLG       0.317500
     60 H111         5.0760    -1.8470     1.4580 h1         1 BLG       0.085200
     61 H112         5.2700    -1.3420    -0.2340 h1         1 BLG       0.085200
     62 H121         6.6680     0.6190     0.5010 h1         1 BLG       0.071700
     63 H122         6.4610     0.1250     2.2100 h1         1 BLG       0.071700
@<TRIPOS>BOND
     1     1     2 1   
     2     1     6 1   
     3     1     7 1   
     4     1    36 1   
     5     2     3 1   
     6     2     8 1   
     7     2    37 1   
     8     3     4 1   
     9     3    12 1   
    10     3    38 1   
    11     4     5 1   
    12     4    13 1   
    13     4    39 1   
    14     5     6 1   
    15     5    18 1   
    16     5    40 1   
    17     7    21 1   
    18     8     9 1   
    19     8    41 1   
    20     9    10 2   
    21     9    11 1   
    22    11    42 1   
    23    11    43 1   
    24    11    44 1   
    25    12    45 1   
    26    13    14 1   
    27    14    15 1   
    28    14    16 1   
    29    14    17 1   
    30    18    19 1   
    31    18    46 1   
    32    18    47 1   
    33    19    48 1   
    34    20    21 1   
    35    20    24 1   
    36    20    25 1   
    37    20    49 1   
    38    21    22 1   
    39    21    50 1   
    40    22    23 1   
    41    22    51 1   
    42    22    52 1   
    43    23    24 1   
    44    23    27 1   
    45    23    53 1   
    46    24    54 1   
    47    24    55 1   
    48    25    26 1   
    49    25    56 1   
    50    25    57 1   
    51    26    58 1   
    52    27    28 2   
    53    27    29 1   
    54    29    30 1   
    55    29    59 1   
    56    30    31 1   
    57    30    60 1   
    58    30    61 1   
    59    31    32 1   
    60    31    62 1   
    61    31    63 1   
    62    32    33 1   
    63    32    34 1   
    64    32    35 1   
@<TRIPOS>SUBSTRUCTURE
     1 BLG         1 TEMP              0 ****  ****    0 ROOT
