@<TRIPOS>MOLECULE
BLG
   63    64     1     0     0
SMALL
abcg2


@<TRIPOS>ATOM
      1 C1          -2.0610     0.9100     0.2610 c6         1 BLG       0.372300
      2 C2          -3.3520     1.1290    -0.5200 c6         1 BLG       0.079700
      3 C3          -4.4020     0.1230    -0.0380 c6         1 BLG       0.167300
      4 C4          -3.8350    -1.3000    -0.0410 c6         1 BLG       0.157300
      5 C5          -2.4680    -1.3630     0.6460 c6         1 BLG       0.171300
      6 O5          -1.6170    -0.4010     0.0630 os         1 BLG      -0.485000
      7 O1          -1.0900     1.7710    -0.2090 os         1 BLG      -0.414000
      8 N2          -3.8310     2.4750    -0.3690 ns         1 BLG      -0.488900
      9 C7          -3.7830     3.4110    -1.3360 c          1 BLG       0.608100
     10 O7          -3.3770     3.1900    -2.4670 o          1 BLG      -0.593100
     11 C8          -4.2810     4.7730    -0.9180 c3         1 BLG      -0.181100
     12 O3          -5.5280     0.2710    -0.8540 oh         1 BLG      -0.683000
     13 O4          -4.7060    -2.1500     0.7040 os         1 BLG      -0.604700
     14 S4          -5.6980    -3.1820    -0.1000 s6         1 BLG       1.489300
     15 O41         -6.5840    -2.3080    -0.8920 o          1 BLG      -0.691867
     16 O42         -6.3570    -3.8550     1.0120 o          1 BLG      -0.691867
     17 O43         -4.8310    -4.0230    -0.9220 o          1 BLG      -0.691867
     18 C6          -1.8050    -2.7140     0.4910 c3         1 BLG       0.163600
     19 O6          -0.5780    -2.6830     1.1800 oh         1 BLG      -0.746000
     20 CA           0.7380     3.1930     0.3010 c5         1 BLG       0.101300
     21 CB           0.0550     1.8590     0.5900 c5         1 BLG       0.174300
     22 CG           1.1470     0.8340     0.2930 c5         1 BLG      -0.115400
     23 CD           2.3810     1.4860     0.9040 c5         1 BLG      -0.005700
     24 N            2.1560     2.9580     0.7350 ny         1 BLG      -0.820000
     25 C9           0.1300     4.3850     1.0020 c3         1 BLG       0.147600
     26 O9           0.8990     5.5140     0.6800 oh         1 BLG      -0.669000
     27 C10          3.6860     1.1200     0.2090 c          1 BLG       0.583100
     28 O10          4.2540     1.9390    -0.4980 o          1 BLG      -0.604100
     29 N3           4.0940    -0.1280     0.4180 ns         1 BLG      -0.441900
     30 C11          5.3330    -0.6590    -0.1130 c3         1 BLG       0.129000
     31 C12          6.5080    -0.3600     0.8090 c3         1 BLG      -0.385400
     32 S            8.0560    -1.0310     0.1740 s6         1 BLG       1.319600
     33 OS1          8.2640    -0.3680    -1.1280 o          1 BLG      -0.682867
     34 OS2          7.8380    -2.4860     0.0490 o          1 BLG      -0.682867
     35 OS3          9.0720    -0.6750     1.1810 o          1 BLG      -0.682867
     36 H1          -2.2400     1.0830     1.3390 h2         1 BLG       0.013700
     37 H2          -3.1480     0.9550    -1.5790 h1         1 BLG       0.123700
     38 H3          -4.6390     0.3630     1.0130 h1         1 BLG       0.027700
     39 H4          -3.7280    -1.6440    -1.0780 h1         1 BLG       0.079700
     40 H5          -2.6050    -1.1470     1.7180 h1         1 BLG       0.053700
     41 HN2         -4.1600     2.7510     0.5430 hn         1 BLG       0.303500
     42 H81         -3.4750     5.4990    -1.0210 hc         1 BLG       0.054033
     43 H82         -5.0890     5.0880    -1.5780 hc         1 BLG       0.054033
     44 H83         -4.6390     4.8060     0.1090 hc         1 BLG       0.054033
     45 HO3         -6.0510    -0.5500    -0.8420 ho         1 BLG       0.519000
     46 H61         -2.4770    -3.4790     0.8930 h1         1 BLG       0.060700
     47 H62         -1.6710    -2.9280    -0.5780 h1         1 BLG       0.060700
     48 HO6         -0.2100    -3.5710     1.1740 ho         1 BLG       0.508000
     49 HA           0.7650     3.3530    -0.7790 hx         1 BLG       0.138700
     50 HB          -0.2160     1.8060     1.6540 h1         1 BLG       0.049700
     51 HG1          0.9460    -0.1430     0.7280 hc         1 BLG       0.120200
     52 HG2          1.2570     0.7150    -0.7880 hc         1 BLG       0.120200
     53 HD           2.4450     1.2880     1.9740 hx         1 BLG       0.101700
     54 HN1          2.3820     3.4550     1.5990 hn         1 BLG       0.517500
     55 HN2A         2.8310     3.3010     0.0380 hn         1 BLG       0.517500
     56 H91         -0.9090     4.4700     0.6630 h1         1 BLG       0.056700
     57 H92          0.1030     4.1970     2.0830 h1         1 BLG       0.056700
     58 HO9          0.6280     6.2420     1.2480 ho         1 BLG       0.472000
     59 HN3          3.5860    -0.7070     1.0690 hn         1 BLG       0.317500
     60 H111         5.2080    -1.7340    -0.2230 h1         1 BLG       0.085200
     61 H112         5.5080    -0.2430    -1.1030 h1         1 BLG       0.085200
     62 H121         6.6460     0.7170     0.9230 h1         1 BLG       0.071700
     63 H122         6.3390    -0.7890     1.7980 h1         1 BLG       0.071700
@<TRIPOS>BOND
     1     1     2 1   
     2     1     6 1   
     3     1     7 1   
     4     1    36 1   
     5     2     3 1   
     6     2     8 1   
     7     2    37 1   
     8     3     4 1   
     9     3    12 1   
    10     3    38 1   
    11     4     5 1   
    12     4    13 1   
    13     4    39 1   
    14     5     6 1   
    15     5    18 1   
    16     5    40 1   
    17     7    21 1   
    18     8     9 1   
    19     8    41 1   
    20     9    10 2   
    21     9    11 1   
    22    11    42 1   
    23    11    43 1   
    24    11    44 1   
    25    12    45 1   
    26    13    14 1   
    27    14    15 1   
    28    14    16 1   
    29    14    17 1   
    30    18    19 1   
    31    18    46 1   
    32    18    47 1   
    33    19    48 1   
    34    20    21 1   
    35    20    24 1   
    36    20    25 1   
    37    20    49 1   
    38    21    22 1   
    39    21    50 1   
    40    22    23 1   
    41    22    51 1   
    42    22    52 1   
    43    23    24 1   
    44    23    27 1   
    45    23    53 1   
    46    24    54 1   
    47    24    55 1   
    48    25    26 1   
    49    25    56 1   
    50    25    57 1   
    51    26    58 1   
    52    27    28 2   
    53    27    29 1   
    54    29    30 1   
    55    29    59 1   
    56    30    31 1   
    57    30    60 1   
    58    30    61 1   
    59    31    32 1   
    60    31    62 1   
    61    31    63 1   
    62    32    33 1   
    63    32    34 1   
    64    32    35 1   
@<TRIPOS>SUBSTRUCTURE
     1 BLG         1 TEMP              0 ****  ****    0 ROOT
