@<TRIPOS>MOLECULE
BLI
   66    69     1     0     0
SMALL
No Charge or Current Charge


@<TRIPOS>ATOM
      1 N1           0.5250    -0.8770     1.3860 n          1 BLI      -0.388800
      2 C1           1.6780    -0.9650     2.2980 c5         1 BLI       0.116700
      3 C2           3.0370    -0.7890     1.5700 c6         1 BLI       0.193800
      4 N3           3.0240     0.4970     0.8260 n3         1 BLI      -0.740500
      5 C4           1.9130     0.5370    -0.1920 c6         1 BLI       0.118800
      6 C5           0.5400    -0.0690     0.2310 c          1 BLI       0.579000
      7 O11         -0.4680     0.0940    -0.4460 o          1 BLI      -0.557000
      8 C01         -0.6680    -1.6300     1.8640 c5         1 BLI       0.027700
      9 C09         -1.9210    -0.7550     2.1900 c          1 BLI       0.598100
     10 O09         -1.9500     0.4460     2.4310 o          1 BLI      -0.581100
     11 N10         -3.0480    -1.5520     2.1670 ns         1 BLI      -0.504900
     12 C03         -0.1260    -2.2510     3.1960 c5         1 BLI      -0.086400
     13 C06          1.4030    -2.3470     2.9370 c5         1 BLI      -0.092400
     14 S1           4.5590     1.0660     0.2810 s6         1 BLI       1.194100
     15 O2           4.2840     2.2330    -0.5640 o          1 BLI      -0.518000
     16 C02          5.2170    -0.2670    -0.7460 c3         1 BLI      -0.275100
     17 O1           5.3850     1.2310     1.4820 o          1 BLI      -0.518000
     18 C8          -4.4170    -1.0700     2.3720 c3         1 BLI       0.110000
     19 C9          -5.1840    -0.8190     1.0410 c6         1 BLI      -0.080700
     20 C3          -6.6550    -0.4160     1.3110 c6         1 BLI      -0.078900
     21 C7          -7.4270    -0.1610    -0.0050 c6         1 BLI       0.202300
     22 C10         -4.5220     0.2680     0.1540 c6         1 BLI      -0.078900
     23 C11         -5.3310     0.5200    -1.1410 c6         1 BLI       0.202300
     24 N4          -6.7530     0.8570    -0.8590 nh         1 BLI      -0.730600
     25 C6          -7.4700     1.4480    -1.8530 c2         1 BLI       0.772100
     26 N2          -7.2250     2.7650    -1.8680 nv         1 BLI      -1.044200
     27 N5          -8.3640     0.8190    -2.5420 n2         1 BLI      -0.482700
     28 O3          -9.1230     1.6120    -3.4550 oh         1 BLI      -0.527000
     29 C6B          6.5660     0.0430    -1.3830 ca         1 BLI      -0.083300
     30 C1B          7.7590    -0.2740    -0.7070 ca         1 BLI      -0.085000
     31 C2B          9.0040     0.0120    -1.2950 ca         1 BLI      -0.108000
     32 C3B          9.0610     0.6150    -2.5630 ca         1 BLI      -0.097000
     33 C4B          7.8730     0.9310    -3.2420 ca         1 BLI      -0.108000
     34 C5B          6.6280     0.6460    -2.6540 ca         1 BLI      -0.085000
     35 H11          1.6070    -0.1710     3.0540 h1         1 BLI       0.085700
     36 H21          3.8410    -0.8060     2.3210 h1         1 BLI       0.063700
     37 H22          3.2030    -1.6360     0.8880 h1         1 BLI       0.063700
     38 H41          1.7070     1.5720    -0.5000 h1         1 BLI       0.085700
     39 H42          2.2000    -0.0210    -1.0940 h1         1 BLI       0.085700
     40 H011        -0.9400    -2.4050     1.1360 h1         1 BLI       0.070700
     41 H101        -2.9120    -2.5360     1.9650 hn         1 BLI       0.311500
     42 H031        -0.3290    -1.6000     4.0550 hc         1 BLI       0.062200
     43 H032        -0.5800    -3.2240     3.4170 hc         1 BLI       0.062200
     44 H061         1.9790    -2.5070     3.8560 hc         1 BLI       0.058700
     45 H062         1.6420    -3.1670     2.2490 hc         1 BLI       0.058700
     46 H021         5.2970    -1.1460    -0.0990 h1         1 BLI       0.093200
     47 H022         4.4650    -0.4610    -1.5180 h1         1 BLI       0.093200
     48 H1'1        -4.3980    -0.1430     2.9620 h1         1 BLI       0.054700
     49 H1'2        -4.9600    -1.8240     2.9570 h1         1 BLI       0.054700
     50 H2'1        -5.1790    -1.7720     0.4940 hc         1 BLI       0.043700
     51 H3'1        -6.6870     0.4920     1.9300 hc         1 BLI       0.054950
     52 H3'2        -7.1640    -1.2020     1.8850 hc         1 BLI       0.054950
     53 H7'1        -8.4400     0.1820     0.2550 h1         1 BLI       0.042950
     54 H7'2        -7.5360    -1.1060    -0.5590 h1         1 BLI       0.042950
     55 H4'1        -4.4350     1.2080     0.7160 hc         1 BLI       0.054950
     56 H4'2        -3.5010    -0.0280    -0.1200 hc         1 BLI       0.054950
     57 H5'1        -5.2800    -0.3680    -1.7880 h1         1 BLI       0.042950
     58 H5'2        -4.8490     1.3430    -1.6890 h1         1 BLI       0.042950
     59 HN21        -6.9590     3.0710    -0.9450 hn         1 BLI       0.474500
     60 HN22        -8.0080     3.2550    -2.2760 hn         1 BLI       0.474500
     61 HO31        -9.7460     0.9850    -3.9010 ho         1 BLI       0.459000
     62 H1A1         7.7240    -0.7400     0.2760 ha         1 BLI       0.119000
     63 H2A1         9.9230    -0.2340    -0.7680 ha         1 BLI       0.117000
     64 H3A1        10.0250     0.8360    -3.0180 ha         1 BLI       0.115000
     65 H4A1         7.9160     1.3980    -4.2240 ha         1 BLI       0.117000
     66 H5A1         5.7130     0.8950    -3.1870 ha         1 BLI       0.119000
@<TRIPOS>BOND
     1     1     2 1   
     2     1     6 1   
     3     1     8 1   
     4     2     3 1   
     5     2    13 1   
     6     2    35 1   
     7     3     4 1   
     8     3    36 1   
     9     3    37 1   
    10     4     5 1   
    11     4    14 1   
    12     5     6 1   
    13     5    38 1   
    14     5    39 1   
    15     6     7 2   
    16     8     9 1   
    17     8    12 1   
    18     8    40 1   
    19     9    10 2   
    20     9    11 1   
    21    11    18 1   
    22    11    41 1   
    23    12    13 1   
    24    12    42 1   
    25    12    43 1   
    26    13    44 1   
    27    13    45 1   
    28    14    15 2   
    29    14    16 1   
    30    14    17 2   
    31    16    29 1   
    32    16    46 1   
    33    16    47 1   
    34    18    19 1   
    35    18    48 1   
    36    18    49 1   
    37    19    20 1   
    38    19    22 1   
    39    19    50 1   
    40    20    21 1   
    41    20    51 1   
    42    20    52 1   
    43    21    24 1   
    44    21    53 1   
    45    21    54 1   
    46    22    23 1   
    47    22    55 1   
    48    22    56 1   
    49    23    24 1   
    50    23    57 1   
    51    23    58 1   
    52    24    25 1   
    53    25    26 1   
    54    25    27 2   
    55    26    59 1   
    56    26    60 1   
    57    27    28 1   
    58    28    61 1   
    59    29    30 ar  
    60    29    34 ar  
    61    30    31 ar  
    62    30    62 1   
    63    31    32 ar  
    64    31    63 1   
    65    32    33 ar  
    66    32    64 1   
    67    33    34 ar  
    68    33    65 1   
    69    34    66 1   
@<TRIPOS>SUBSTRUCTURE
     1 BLI         1 TEMP              0 ****  ****    0 ROOT
