@<TRIPOS>MOLECULE
BLI
   66    69     1     0     0
SMALL
abcg2


@<TRIPOS>ATOM
      1 N1           0.8310    -0.6760     0.5920 n          1 BLI      -0.388800
      2 C1           1.7620    -1.3400     1.4960 c5         1 BLI       0.116700
      3 C2           3.1320    -1.3950     0.8680 c6         1 BLI       0.193800
      4 N3           3.4770    -0.0240     0.5100 n3         1 BLI      -0.740500
      5 C4           2.6270     0.5590    -0.5180 c6         1 BLI       0.118800
      6 C5           1.1590     0.2010    -0.3600 c          1 BLI       0.579000
      7 O11          0.3400     0.6880    -1.1250 o          1 BLI      -0.557000
      8 C01         -0.5250    -1.1570     0.7370 c5         1 BLI       0.027700
      9 C09         -1.4640    -0.0560     1.2090 c          1 BLI       0.598100
     10 O09         -1.0650     0.9110     1.8380 o          1 BLI      -0.581100
     11 N10         -2.7540    -0.2760     0.9280 ns         1 BLI      -0.504900
     12 C03         -0.4000    -2.2720     1.7950 c5         1 BLI      -0.086400
     13 C06          1.0730    -2.6730     1.7390 c5         1 BLI      -0.092400
     14 S1           5.0580     0.4480     0.5650 s6         1 BLI       1.194100
     15 O2           5.0820     1.8830     0.3330 o          1 BLI      -0.518000
     16 C02          5.8790    -0.3580    -0.8220 c3         1 BLI      -0.275100
     17 O1           5.6250    -0.0840     1.7920 o          1 BLI      -0.518000
     18 C8          -3.8220     0.5720     1.4160 c3         1 BLI       0.110000
     19 C9          -5.1750     0.0890     0.9150 c6         1 BLI      -0.080700
     20 C3          -6.2970     0.8930     1.5620 c6         1 BLI      -0.078900
     21 C7          -7.6570     0.4450     1.0570 c6         1 BLI       0.202300
     22 C10         -5.3170     0.1720    -0.6020 c6         1 BLI      -0.078900
     23 C11         -6.7040    -0.2600    -1.0550 c6         1 BLI       0.202300
     24 N4          -7.7260     0.5410    -0.4000 nh         1 BLI      -0.730600
     25 C6          -8.9950     0.5170    -0.9640 c2         1 BLI       0.772100
     26 N2          -9.8490     1.5120    -0.5820 nv         1 BLI      -1.044200
     27 N5          -9.2600    -0.3660    -1.8580 n2         1 BLI      -0.482700
     28 O3         -10.5230    -0.1430    -2.4150 oh         1 BLI      -0.527000
     29 C6B          7.3330    -0.0050    -0.8160 ca         1 BLI      -0.083300
     30 C1B          8.2470    -0.7990    -0.1290 ca         1 BLI      -0.085000
     31 C2B          9.5920    -0.4590    -0.1070 ca         1 BLI      -0.108000
     32 C3B         10.0330     0.6820    -0.7640 ca         1 BLI      -0.097000
     33 C4B          9.1240     1.4800    -1.4480 ca         1 BLI      -0.108000
     34 C5B          7.7800     1.1400    -1.4710 ca         1 BLI      -0.085000
     35 H11          1.8280    -0.7800     2.4360 h1         1 BLI       0.085700
     36 H21          3.8430    -1.7910     1.5890 h1         1 BLI       0.063700
     37 H22          3.1300    -2.0490    -0.0130 h1         1 BLI       0.063700
     38 H41          2.7000     1.6450    -0.4880 h1         1 BLI       0.085700
     39 H42          2.9090     0.2340    -1.5280 h1         1 BLI       0.085700
     40 H011        -0.8750    -1.5700    -0.2140 h1         1 BLI       0.070700
     41 H101        -3.0050    -1.1240     0.4440 hn         1 BLI       0.311500
     42 H031        -0.6380    -1.8870     2.7890 hc         1 BLI       0.062200
     43 H032        -1.0790    -3.0970     1.5880 hc         1 BLI       0.062200
     44 H061         1.4130    -3.1520     2.6550 hc         1 BLI       0.058700
     45 H062         1.2570    -3.3530     0.9030 hc         1 BLI       0.058700
     46 H021         5.7130    -1.4310    -0.7120 h1         1 BLI       0.093200
     47 H022         5.3780    -0.0190    -1.7300 h1         1 BLI       0.093200
     48 H1'1        -3.6540     1.6010     1.0880 h1         1 BLI       0.054700
     49 H1'2        -3.8200     0.5800     2.5100 h1         1 BLI       0.054700
     50 H2'1        -5.2970    -0.9600     1.2190 hc         1 BLI       0.043700
     51 H3'1        -6.1640     1.9590     1.3470 hc         1 BLI       0.054950
     52 H3'2        -6.2700     0.7790     2.6490 hc         1 BLI       0.054950
     53 H7'1        -8.4300     1.0610     1.5130 h1         1 BLI       0.042950
     54 H7'2        -7.8460    -0.5890     1.3810 h1         1 BLI       0.042950
     55 H4'1        -5.1280     1.2000    -0.9300 hc         1 BLI       0.054950
     56 H4'2        -4.5840    -0.4610    -1.1070 hc         1 BLI       0.054950
     57 H5'1        -6.8390    -1.3310    -0.8460 h1         1 BLI       0.042950
     58 H5'2        -6.7950    -0.1350    -2.1320 h1         1 BLI       0.042950
     59 HN21        -9.5860     2.0850     0.2010 hn         1 BLI       0.474500
     60 HN22       -10.8360     1.3240    -0.6410 hn         1 BLI       0.474500
     61 HO31       -10.6320    -0.8870    -3.0130 ho         1 BLI       0.459000
     62 H1A1         7.9100    -1.6940     0.3790 ha         1 BLI       0.119000
     63 H2A1        10.2960    -1.0860     0.4250 ha         1 BLI       0.117000
     64 H3A1        11.0820     0.9470    -0.7480 ha         1 BLI       0.115000
     65 H4A1         9.4630     2.3690    -1.9640 ha         1 BLI       0.117000
     66 H5A1         7.0770     1.7600    -2.0120 ha         1 BLI       0.119000
@<TRIPOS>BOND
     1     1     2 1   
     2     1     6 1   
     3     1     8 1   
     4     2     3 1   
     5     2    13 1   
     6     2    35 1   
     7     3     4 1   
     8     3    36 1   
     9     3    37 1   
    10     4     5 1   
    11     4    14 1   
    12     5     6 1   
    13     5    38 1   
    14     5    39 1   
    15     6     7 2   
    16     8     9 1   
    17     8    12 1   
    18     8    40 1   
    19     9    10 2   
    20     9    11 1   
    21    11    18 1   
    22    11    41 1   
    23    12    13 1   
    24    12    42 1   
    25    12    43 1   
    26    13    44 1   
    27    13    45 1   
    28    14    15 2   
    29    14    16 1   
    30    14    17 2   
    31    16    29 1   
    32    16    46 1   
    33    16    47 1   
    34    18    19 1   
    35    18    48 1   
    36    18    49 1   
    37    19    20 1   
    38    19    22 1   
    39    19    50 1   
    40    20    21 1   
    41    20    51 1   
    42    20    52 1   
    43    21    24 1   
    44    21    53 1   
    45    21    54 1   
    46    22    23 1   
    47    22    55 1   
    48    22    56 1   
    49    23    24 1   
    50    23    57 1   
    51    23    58 1   
    52    24    25 1   
    53    25    26 1   
    54    25    27 2   
    55    26    59 1   
    56    26    60 1   
    57    27    28 1   
    58    28    61 1   
    59    29    30 ar  
    60    29    34 ar  
    61    30    31 ar  
    62    30    62 1   
    63    31    32 ar  
    64    31    63 1   
    65    32    33 ar  
    66    32    64 1   
    67    33    34 ar  
    68    33    65 1   
    69    34    66 1   
@<TRIPOS>SUBSTRUCTURE
     1 BLI         1 TEMP              0 ****  ****    0 ROOT
