@<TRIPOS>MOLECULE
BLL
   92    97     1     0     0
SMALL
No Charge or Current Charge


@<TRIPOS>ATOM
      1 C01          2.5010    -3.6230     3.7610 ca         1 BLL      -0.082300
      2 C02          3.5600    -3.3810     4.6580 ca         1 BLL      -0.105750
      3 C03          4.5270    -4.3730     4.8980 ca         1 BLL      -0.110750
      4 C04          4.4410    -5.6130     4.2410 ca         1 BLL      -0.111500
      5 C05          3.3880    -5.8580     3.3430 ca         1 BLL      -0.110750
      6 C06          2.4210    -4.8660     3.1030 ca         1 BLL      -0.105750
      7 C07          2.4080     3.6500    -3.6070 ca         1 BLL      -0.082300
      8 C08          3.5250     3.4180    -4.4330 ca         1 BLL      -0.105750
      9 C09          4.4710     4.4360    -4.6470 ca         1 BLL      -0.110750
     10 C10          4.3060     5.6900    -4.0350 ca         1 BLL      -0.111500
     11 C11          3.1950     5.9250    -3.2090 ca         1 BLL      -0.110750
     12 C12          2.2480     4.9080    -2.9950 ca         1 BLL      -0.105750
     13 C14          1.7770     1.6430    -2.1780 c3         1 BLL      -0.069400
     14 C15          0.7220     0.5440    -1.8410 c3         1 BLL      -0.166700
     15 C16          1.0690    -0.3630    -0.6230 c3         1 BLL       0.148300
     16 C17          1.1420     0.3750     0.7590 c3         1 BLL       0.148300
     17 C18          0.8080    -0.5250     1.9890 c3         1 BLL      -0.166700
     18 C19          0.4440     0.3470     3.2090 c          1 BLL       0.599600
     19 O20          1.2560     1.0440     3.8020 o          1 BLL      -0.591600
     20 N21         -0.8780     0.2620     3.5900 ns         1 BLL      -0.494400
     21 C22          1.8770    -1.6050     2.3440 c3         1 BLL      -0.069400
     22 C23          1.4580    -2.5460     3.4980 c3         1 BLL      -0.030100
     23 O24          2.4480     0.9430     0.8970 oh         1 BLL      -0.639500
     24 O25          2.3080    -1.0500    -0.8820 oh         1 BLL      -0.639500
     25 N28         -0.8490    -0.2380    -3.5650 ns         1 BLL      -0.494400
     26 C29         -1.2190    -1.0300    -4.7430 c5         1 BLL       0.159000
     27 C30         -1.9590    -2.3100    -4.4430 ca         1 BLL      -0.102300
     28 C31         -3.1030    -2.4400    -5.2050 ca         1 BLL      -0.080300
     29 C32         -1.5840    -3.3100    -3.5290 ca         1 BLL      -0.080500
     30 C33         -2.4010    -4.4500    -3.3930 ca         1 BLL      -0.111000
     31 C34         -3.5710    -4.5790    -4.1710 ca         1 BLL      -0.107000
     32 C35         -2.3600    -0.1840    -5.4840 c5         1 BLL       0.151300
     33 O36         -3.1110     0.6740    -4.6030 oh         1 BLL      -0.661500
     34 C37         -3.9270    -3.5700    -5.0870 ca         1 BLL      -0.095000
     35 C38         -3.3070    -1.2700    -6.1330 c5         1 BLL      -0.068100
     36 C39         -1.3400     1.0330     4.7490 c5         1 BLL       0.159000
     37 C40         -2.0020     2.3480     4.4170 ca         1 BLL      -0.102300
     38 C41         -3.2130     2.4970     5.0640 ca         1 BLL      -0.080300
     39 C42         -1.5050     3.3580     3.5760 ca         1 BLL      -0.080500
     40 C43         -2.2660     4.5290     3.3940 ca         1 BLL      -0.111000
     41 C44         -3.5030     4.6800     4.0540 ca         1 BLL      -0.107000
     42 C45         -3.9830     3.6590     4.8990 ca         1 BLL      -0.095000
     43 C46         -2.5790     0.2090     5.3430 c5         1 BLL       0.151300
     44 O47         -3.2660    -0.5930     4.3620 oh         1 BLL      -0.661500
     45 C48         -3.5490     1.3090     5.9290 c5         1 BLL      -0.068100
     46 H02          3.6350    -2.4230     5.1680 ha         1 BLL       0.114500
     47 H03          5.3420    -4.1810     5.5920 ha         1 BLL       0.111500
     48 H04          5.1890    -6.3800     4.4260 ha         1 BLL       0.111000
     49 H05          3.3210    -6.8170     2.8320 ha         1 BLL       0.111500
     50 H06          1.6110    -5.0630     2.4040 ha         1 BLL       0.114500
     51 H08          3.6610     2.4490    -4.9080 ha         1 BLL       0.114500
     52 H09          5.3320     4.2520    -5.2860 ha         1 BLL       0.111500
     53 H10          5.0390     6.4770    -4.2010 ha         1 BLL       0.111000
     54 H11          3.0670     6.8960    -2.7330 ha         1 BLL       0.111500
     55 H12          1.3920     5.0980    -2.3510 ha         1 BLL       0.114500
     56 H131         1.2860     1.9370    -4.2790 hc         1 BLL       0.048700
     57 H132         0.3970     2.9820    -3.1860 hc         1 BLL       0.048700
     58 H141         1.9210     2.2890    -1.3040 hc         1 BLL       0.061200
     59 H142         2.7480     1.1770    -2.3910 hc         1 BLL       0.061200
     60 H15         -0.2060     1.0710    -1.5900 hc         1 BLL       0.064700
     61 H16          0.2560    -1.1010    -0.5480 h1         1 BLL       0.074700
     62 H17          0.3890     1.1760     0.7380 h1         1 BLL       0.074700
     63 H18         -0.1030    -1.0710     1.7160 hc         1 BLL       0.064700
     64 H21         -1.4920    -0.3620     3.0810 hn         1 BLL       0.327000
     65 H221         2.0820    -2.2210     1.4620 hc         1 BLL       0.061200
     66 H222         2.8210    -1.1160     2.6140 hc         1 BLL       0.061200
     67 H231         1.2920    -1.9610     4.4110 hc         1 BLL       0.048700
     68 H232         0.4930    -3.0090     3.2530 hc         1 BLL       0.048700
     69 H24          3.0040     0.3580     0.3330 ho         1 BLL       0.447000
     70 H25          2.2690    -1.3360    -1.8260 ho         1 BLL       0.447000
     71 H28         -1.4860     0.4260    -3.1420 hn         1 BLL       0.327000
     72 H29         -0.3780    -1.2230    -5.4250 h1         1 BLL       0.097700
     73 H32         -0.6780    -3.2080    -2.9360 ha         1 BLL       0.117000
     74 H33         -2.1270    -5.2320    -2.6890 ha         1 BLL       0.113000
     75 H34         -4.1980    -5.4620    -4.0650 ha         1 BLL       0.112000
     76 H35         -1.9050     0.4350    -6.2700 h1         1 BLL       0.049700
     77 H36         -3.7970     1.1140    -5.1510 ho         1 BLL       0.446500
     78 H37         -4.8250    -3.6660    -5.6920 ha         1 BLL       0.113500
     79 H381        -4.3520    -0.9440    -6.1890 hc         1 BLL       0.060200
     80 H382        -2.9880    -1.5150    -7.1520 hc         1 BLL       0.060200
     81 H39         -0.5690     1.1750     5.5200 h1         1 BLL       0.097700
     82 H42         -0.5480     3.2390     3.0730 ha         1 BLL       0.117000
     83 H43         -1.8960     5.3200     2.7450 ha         1 BLL       0.113000
     84 H44         -4.0870     5.5870     3.9140 ha         1 BLL       0.112000
     85 H45         -4.9340     3.7710     5.4140 ha         1 BLL       0.113500
     86 H46         -2.2280    -0.4510     6.1490 h1         1 BLL       0.049700
     87 H47         -4.0190    -1.0240     4.8220 ho         1 BLL       0.446500
     88 H481        -4.6050     1.0210     5.8710 hc         1 BLL       0.060200
     89 H482        -3.3250     1.5140     6.9820 hc         1 BLL       0.060200
     90 C26          0.4270    -0.3440    -3.0620 c          1 BLL       0.599600
     91 O27          1.2700    -1.0970    -3.5320 o          1 BLL      -0.591600
     92 C13          1.3860     2.5450    -3.3720 c3         1 BLL      -0.030100
@<TRIPOS>BOND
     1     1     2 ar  
     2     1     6 ar  
     3     1    22 1   
     4     2     3 ar  
     5     2    46 1   
     6     3     4 ar  
     7     3    47 1   
     8     4     5 ar  
     9     4    48 1   
    10     5     6 ar  
    11     5    49 1   
    12     6    50 1   
    13     7     8 ar  
    14     7    12 ar  
    15     7    92 1   
    16     8     9 ar  
    17     8    51 1   
    18     9    10 ar  
    19     9    52 1   
    20    10    11 ar  
    21    10    53 1   
    22    11    12 ar  
    23    11    54 1   
    24    12    55 1   
    25    13    14 1   
    26    13    58 1   
    27    13    59 1   
    28    13    92 1   
    29    14    15 1   
    30    14    60 1   
    31    14    90 1   
    32    15    16 1   
    33    15    24 1   
    34    15    61 1   
    35    16    17 1   
    36    16    23 1   
    37    16    62 1   
    38    17    18 1   
    39    17    21 1   
    40    17    63 1   
    41    18    19 2   
    42    18    20 1   
    43    20    36 1   
    44    20    64 1   
    45    21    22 1   
    46    21    65 1   
    47    21    66 1   
    48    22    67 1   
    49    22    68 1   
    50    23    69 1   
    51    24    70 1   
    52    25    26 1   
    53    25    71 1   
    54    25    90 1   
    55    26    27 1   
    56    26    32 1   
    57    26    72 1   
    58    27    28 ar  
    59    27    29 ar  
    60    28    34 ar  
    61    28    35 1   
    62    29    30 ar  
    63    29    73 1   
    64    30    31 ar  
    65    30    74 1   
    66    31    34 ar  
    67    31    75 1   
    68    32    33 1   
    69    32    35 1   
    70    32    76 1   
    71    33    77 1   
    72    34    78 1   
    73    35    79 1   
    74    35    80 1   
    75    36    37 1   
    76    36    43 1   
    77    36    81 1   
    78    37    38 ar  
    79    37    39 ar  
    80    38    42 ar  
    81    38    45 1   
    82    39    40 ar  
    83    39    82 1   
    84    40    41 ar  
    85    40    83 1   
    86    41    42 ar  
    87    41    84 1   
    88    42    85 1   
    89    43    44 1   
    90    43    45 1   
    91    43    86 1   
    92    44    87 1   
    93    45    88 1   
    94    45    89 1   
    95    56    92 1   
    96    57    92 1   
    97    90    91 2   
@<TRIPOS>SUBSTRUCTURE
     1 BLL         1 TEMP              0 ****  ****    0 ROOT
