@<TRIPOS>MOLECULE
BLL
   92    97     1     0     0
SMALL
bcc


@<TRIPOS>ATOM
      1 C01          3.4630    -2.8710     3.8460 ca         1 BLL      -0.082300
      2 C02          4.0770    -2.2770     4.9480 ca         1 BLL      -0.123750
      3 C03          5.3220    -2.7050     5.3870 ca         1 BLL      -0.128750
      4 C04          5.9760    -3.7390     4.7280 ca         1 BLL      -0.129500
      5 C05          5.3750    -4.3380     3.6280 ca         1 BLL      -0.128750
      6 C06          4.1290    -3.9050     3.1920 ca         1 BLL      -0.123750
      7 C07          3.4760     2.8770    -3.8120 ca         1 BLL      -0.082300
      8 C08          4.1090     2.2740    -4.8970 ca         1 BLL      -0.123750
      9 C09          5.3550     2.7100    -5.3290 ca         1 BLL      -0.128750
     10 C10          5.9890     3.7600    -4.6780 ca         1 BLL      -0.129500
     11 C11          5.3700     4.3680    -3.5940 ca         1 BLL      -0.128750
     12 C12          4.1230     3.9280    -3.1660 ca         1 BLL      -0.123750
     13 C14          2.3220     1.2300    -2.3140 c3         1 BLL      -0.069400
     14 C15          0.9800     0.6720    -1.8420 c3         1 BLL      -0.166700
     15 C16          1.0760    -0.3460    -0.6750 c3         1 BLL       0.125100
     16 C17          1.0660     0.3460     0.7000 c3         1 BLL       0.125100
     17 C18          0.9700    -0.6710     1.8680 c3         1 BLL      -0.166700
     18 C19          0.2510     0.0150     3.0200 c          1 BLL       0.666600
     19 O20          0.8220     0.7860     3.7760 o          1 BLL      -0.591600
     20 N21         -1.0650    -0.2640     3.1010 ns         1 BLL      -0.561400
     21 C22          2.3120    -1.2250     2.3460 c3         1 BLL      -0.069400
     22 C23          2.1370    -2.3680     3.3490 c3         1 BLL      -0.030100
     23 O24          2.0970     1.2820     0.8830 oh         1 BLL      -0.577300
     24 O25          2.1170    -1.2720    -0.8490 oh         1 BLL      -0.577300
     25 N28         -1.0420     0.2810    -3.1000 ns         1 BLL      -0.561400
     26 C29         -1.9290    -0.2880    -4.0740 c5         1 BLL       0.159000
     27 C30         -3.0260    -1.1580    -3.5080 ca         1 BLL      -0.102300
     28 C31         -4.1710    -1.0280    -4.2870 ca         1 BLL      -0.080300
     29 C32         -2.9980    -1.9990    -2.4110 ca         1 BLL      -0.098500
     30 C33         -4.1450    -2.7210    -2.0950 ca         1 BLL      -0.129000
     31 C34         -5.2910    -2.5990    -2.8730 ca         1 BLL      -0.125000
     32 C35         -2.7180     0.7540    -4.8890 c5         1 BLL       0.128100
     33 O36         -3.1140     1.7620    -3.9890 oh         1 BLL      -0.599300
     34 C37         -5.3110    -1.7490    -3.9770 ca         1 BLL      -0.113000
     35 C38         -3.9220    -0.0500    -5.4030 c5         1 BLL      -0.068100
     36 C39         -1.9590     0.3130     4.0640 c5         1 BLL       0.159000
     37 C40         -3.0490     1.1810     3.4830 ca         1 BLL      -0.102300
     38 C41         -4.2000     1.0610     4.2530 ca         1 BLL      -0.080300
     39 C42         -3.0080     2.0150     2.3810 ca         1 BLL      -0.098500
     40 C43         -4.1500     2.7410     2.0510 ca         1 BLL      -0.129000
     41 C44         -5.3030     2.6270     2.8210 ca         1 BLL      -0.125000
     42 C45         -5.3360     1.7840     3.9290 ca         1 BLL      -0.113000
     43 C46         -2.7580    -0.7210     4.8800 c5         1 BLL       0.128100
     44 O47         -3.1480    -1.7350     3.9840 oh         1 BLL      -0.599300
     45 C48         -3.9630     0.0900     5.3780 c5         1 BLL      -0.068100
     46 H02          3.5710    -1.4720     5.4690 ha         1 BLL       0.132500
     47 H03          5.7810    -2.2340     6.2470 ha         1 BLL       0.129500
     48 H04          6.9460    -4.0760     5.0690 ha         1 BLL       0.129000
     49 H05          5.8770    -5.1440     3.1080 ha         1 BLL       0.129500
     50 H06          3.6660    -4.3790     2.3340 ha         1 BLL       0.132500
     51 H08          3.6190     1.4560    -5.4120 ha         1 BLL       0.132500
     52 H09          5.8290     2.2310    -6.1750 ha         1 BLL       0.129500
     53 H10          6.9600     4.1030    -5.0130 ha         1 BLL       0.129000
     54 H11          5.8560     5.1890    -3.0810 ha         1 BLL       0.129500
     55 H12          3.6450     4.4100    -2.3200 ha         1 BLL       0.132500
     56 H131         1.5580     2.0250    -4.1770 hc         1 BLL       0.048700
     57 H132         1.5840     3.1790    -2.8570 hc         1 BLL       0.048700
     58 H141         2.8890     1.6080    -1.4620 hc         1 BLL       0.061200
     59 H142         2.9180     0.4390    -2.7750 hc         1 BLL       0.061200
     60 H15          0.3650     1.5090    -1.4930 hc         1 BLL       0.064700
     61 H16          0.1580    -0.9460    -0.6830 h1         1 BLL       0.074700
     62 H17          0.1420     0.9380     0.7000 h1         1 BLL       0.074700
     63 H18          0.3580    -1.5100     1.5170 hc         1 BLL       0.064700
     64 H21         -1.4520    -0.9470     2.4710 hn         1 BLL       0.327000
     65 H221         2.8850    -1.5960     1.4960 hc         1 BLL       0.061200
     66 H222         2.9020    -0.4330     2.8130 hc         1 BLL       0.061200
     67 H231         1.5370    -2.0310     4.1990 hc         1 BLL       0.048700
     68 H232         1.5810    -3.1800     2.8740 hc         1 BLL       0.048700
     69 H24          2.9390     0.8260     0.9770 ho         1 BLL       0.408000
     70 H25          2.9540    -0.8060    -0.9470 ho         1 BLL       0.408000
     71 H28         -1.4290     0.9740    -2.4800 hn         1 BLL       0.327000
     72 H29         -1.3240    -0.8780    -4.7680 h1         1 BLL       0.097700
     73 H32         -2.1080    -2.0900    -1.7990 ha         1 BLL       0.135000
     74 H33         -4.1470    -3.3800    -1.2360 ha         1 BLL       0.131000
     75 H34         -6.1780    -3.1640    -2.6150 ha         1 BLL       0.130000
     76 H35         -2.1140     1.1630    -5.7060 h1         1 BLL       0.049700
     77 H36         -3.6100     2.4290    -4.4730 ho         1 BLL       0.407500
     78 H37         -6.2110    -1.6500    -4.5730 ha         1 BLL       0.131500
     79 H381        -4.7800     0.5820    -5.6400 hc         1 BLL       0.060200
     80 H382        -3.6500    -0.5790    -6.3220 hc         1 BLL       0.060200
     81 H39         -1.3580     0.9060     4.7580 h1         1 BLL       0.097700
     82 H42         -2.1120     2.1000     1.7760 ha         1 BLL       0.135000
     83 H43         -4.1420     3.3940     1.1880 ha         1 BLL       0.131000
     84 H44         -6.1850     3.1940     2.5510 ha         1 BLL       0.130000
     85 H45         -6.2400     1.6920     4.5180 ha         1 BLL       0.131500
     86 H46         -2.1610    -1.1250     5.7050 h1         1 BLL       0.049700
     87 H47         -3.6540    -2.3940     4.4680 ho         1 BLL       0.407500
     88 H481        -4.8250    -0.5370     5.6130 hc         1 BLL       0.060200
     89 H482        -3.6970     0.6240     6.2950 hc         1 BLL       0.060200
     90 C26          0.2680    -0.0140    -2.9980 c          1 BLL       0.666600
     91 O27          0.8410    -0.7990    -3.7390 o          1 BLL      -0.591600
     92 C13          2.1490     2.3680    -3.3240 c3         1 BLL      -0.030100
@<TRIPOS>BOND
     1     1     2 ar  
     2     1     6 ar  
     3     1    22 1   
     4     2     3 ar  
     5     2    46 1   
     6     3     4 ar  
     7     3    47 1   
     8     4     5 ar  
     9     4    48 1   
    10     5     6 ar  
    11     5    49 1   
    12     6    50 1   
    13     7     8 ar  
    14     7    12 ar  
    15     7    92 1   
    16     8     9 ar  
    17     8    51 1   
    18     9    10 ar  
    19     9    52 1   
    20    10    11 ar  
    21    10    53 1   
    22    11    12 ar  
    23    11    54 1   
    24    12    55 1   
    25    13    14 1   
    26    13    58 1   
    27    13    59 1   
    28    13    92 1   
    29    14    15 1   
    30    14    60 1   
    31    14    90 1   
    32    15    16 1   
    33    15    24 1   
    34    15    61 1   
    35    16    17 1   
    36    16    23 1   
    37    16    62 1   
    38    17    18 1   
    39    17    21 1   
    40    17    63 1   
    41    18    19 2   
    42    18    20 1   
    43    20    36 1   
    44    20    64 1   
    45    21    22 1   
    46    21    65 1   
    47    21    66 1   
    48    22    67 1   
    49    22    68 1   
    50    23    69 1   
    51    24    70 1   
    52    25    26 1   
    53    25    71 1   
    54    25    90 1   
    55    26    27 1   
    56    26    32 1   
    57    26    72 1   
    58    27    28 ar  
    59    27    29 ar  
    60    28    34 ar  
    61    28    35 1   
    62    29    30 ar  
    63    29    73 1   
    64    30    31 ar  
    65    30    74 1   
    66    31    34 ar  
    67    31    75 1   
    68    32    33 1   
    69    32    35 1   
    70    32    76 1   
    71    33    77 1   
    72    34    78 1   
    73    35    79 1   
    74    35    80 1   
    75    36    37 1   
    76    36    43 1   
    77    36    81 1   
    78    37    38 ar  
    79    37    39 ar  
    80    38    42 ar  
    81    38    45 1   
    82    39    40 ar  
    83    39    82 1   
    84    40    41 ar  
    85    40    83 1   
    86    41    42 ar  
    87    41    84 1   
    88    42    85 1   
    89    43    44 1   
    90    43    45 1   
    91    43    86 1   
    92    44    87 1   
    93    45    88 1   
    94    45    89 1   
    95    56    92 1   
    96    57    92 1   
    97    90    91 2   
@<TRIPOS>SUBSTRUCTURE
     1 BLL         1 TEMP              0 ****  ****    0 ROOT
