@<TRIPOS>MOLECULE
BLM
  181   184     1     0     0
SMALL
abcg2


@<TRIPOS>ATOM
      1 NA          18.7580    74.1940    11.2100 nt         1 BLM      -0.577000
      2 C2          21.1830    74.4370    11.0690 c3         1 BLM       0.069500
      3 C1          19.8270    74.1950    10.4050 c          1 BLM       0.631100
      4 O1          19.7560    74.0250     9.1800 o          1 BLM      -0.643100
      5 NC          21.2510    71.9230    11.1810 n7         1 BLM      -0.847400
      6 C3          21.7080    73.1690    11.7850 c3         1 BLM       0.136800
      7 NB          21.1440    75.6080    11.9600 n8         1 BLM      -0.995200
      8 C5          22.8870    70.4230    12.3770 c3         1 BLM      -0.184400
      9 C4          23.0720    69.0430    12.9750 c          1 BLM       0.621100
     10 O4          22.4310    68.0610    12.5730 o          1 BLM      -0.659100
     11 C8          20.2420    71.0170    15.4840 ca         1 BLM       0.357900
     12 C9          18.8250    71.0580    15.3380 ca         1 BLM      -0.177300
     13 C10         18.3770    70.9410    14.0330 ca         1 BLM       0.103500
     14 NG          19.2200    70.8220    12.9870 nb         1 BLM      -0.177000
     15 C7          20.5180    70.8220    13.2250 ca         1 BLM       0.176300
     16 NE          21.0690    70.9050    14.4340 nb         1 BLM      -0.282000
     17 C6          21.4290    70.7260    12.0060 c3         1 BLM       0.159200
     18 CA          17.9830    71.2330    16.5690 c3         1 BLM      -0.044800
     19 C12         16.9120    70.9080    13.6280 c          1 BLM       0.495600
     20 O12         15.9740    70.9020    14.4280 o          1 BLM      -0.620100
     21 NH          16.7390    70.8740    12.2950 ns         1 BLM      -0.482900
     22 C13         15.4430    70.8260    11.6760 c3         1 BLM       0.020700
     23 C30         14.8590    69.4120    11.5400 c          1 BLM       0.590100
     24 O30         13.6780    69.2670    11.2240 o          1 BLM      -0.614100
     25 C14         15.4680    71.4760    10.2770 c3         1 BLM       0.139000
     26 C27         16.5400    70.9960     9.3480 cc         1 BLM       0.230300
     27 OH1         15.6280    72.9050    10.4000 os         1 BLM      -0.447000
     28 NJ          17.8200    70.8120     9.7580 n1         1 BLM      -0.738000
     29 C28         16.4770    70.7800     7.9480 cc         1 BLM       0.274900
     30 C29         18.4710    70.5050     8.6190 cd         1 BLM       0.596900
     31 NI          17.7000    70.4730     7.4930 nd         1 BLM      -0.735000
     32 NK          15.7250    68.4090    11.7280 ns         1 BLM      -0.498900
     33 C34         16.6420    67.1870     9.2650 c3         1 BLM      -0.126700
     34 C36         17.8380    66.6450     8.4880 c          1 BLM       0.624100
     35 O36         17.7360    66.0380     7.4210 o          1 BLM      -0.646100
     36 OH2         16.1860    65.0530    10.2720 oh         1 BLM      -0.668000
     37 C31         15.4130    67.0070    11.5120 c3         1 BLM       0.078700
     38 CB          15.3080    66.2620    12.8420 c3         1 BLM      -0.110100
     39 C33         16.4910    66.4100    10.5870 c3         1 BLM       0.167300
     40 CC          15.3780    67.2020     8.4140 c3         1 BLM      -0.073100
     41 NL          19.0370    66.8580     9.0670 ns         1 BLM      -0.485900
     42 C37         20.2780    66.3680     8.5140 c3         1 BLM       0.048700
     43 C40         20.1880    64.8590     8.2420 c          1 BLM       0.596100
     44 O40         19.7210    64.0870     9.0750 o          1 BLM      -0.619100
     45 C38         21.4080    66.6160     9.5290 c3         1 BLM       0.165300
     46 OH3         21.2860    67.9620     9.9790 oh         1 BLM      -0.696000
     47 CD          22.7810    66.3570     8.9370 c3         1 BLM      -0.124100
     48 NM          20.7110    64.4510     7.0770 ns         1 BLM      -0.500900
     49 O49         24.6550    54.2480     3.2330 o          1 BLM      -0.618100
     50 C43         21.9900    60.8800     7.1640 cc         1 BLM       0.441700
     51 C41         20.7920    63.0490     6.7180 c3         1 BLM       0.110000
     52 S43         20.9510    59.8350     8.0930 ss         1 BLM      -0.011400
     53 C44         21.5250    58.4820     7.2170 cc         1 BLM      -0.214000
     54 C45         22.4500    58.8910     6.2940 cd         1 BLM       0.230000
     55 NN          22.6970    60.2470     6.2760 nd         1 BLM      -0.645000
     56 C47         24.6300    57.1150     3.6600 cd         1 BLM      -0.217000
     57 C48         23.8640    56.2050     4.3310 cc         1 BLM       0.222500
     58 NO          23.0430    56.7330     5.2940 nc         1 BLM      -0.646000
     59 C46         23.1680    58.0290     5.3730 cd         1 BLM       0.404400
     60 S46         24.3230    58.6940     4.2460 ss         1 BLM       0.051600
     61 NP          23.0400    54.0260     4.8300 ns         1 BLM      -0.484900
     62 C50         22.9220    52.5800     4.8000 c3         1 BLM       0.104000
     63 C51         23.1120    51.9830     6.1940 c3         1 BLM      -0.076400
     64 C52         22.9470    50.4740     6.2170 c3         1 BLM       0.116900
     65 S53         21.2300    49.9010     5.9440 s4         1 BLM      -0.363900
     66 C55         20.5540    49.8550     7.6130 c3         1 BLM       0.017700
     67 C54         21.5680    48.1340     5.6840 c3         1 BLM       0.017700
     68 O59         12.9270    76.1480     8.6480 oh         1 BLM      -0.708000
     69 O58         16.4950    75.4550     9.2400 oh         1 BLM      -0.679000
     70 C61         13.0460    73.6560     7.1900 c3         1 BLM       0.170600
     71 O61         13.1960    72.2590     6.9230 oh         1 BLM      -0.722000
     72 O56         15.6690    75.1980    11.9050 os         1 BLM      -0.455000
     73 C60         14.0160    74.0400     8.2810 c6         1 BLM       0.170300
     74 O62         13.5360    73.4720     9.5150 os         1 BLM      -0.457000
     75 C63         14.4250    73.6100    10.6000 c6         1 BLM       0.383300
     76 C57         14.7250    75.0930    10.8440 c6         1 BLM       0.162300
     77 C58         15.1710    75.8420     9.5860 c6         1 BLM       0.119300
     78 C59         14.2000    75.5450     8.4260 c6         1 BLM       0.111300
     79 C69         16.7270    76.3720    13.6760 c6         1 BLM       0.125300
     80 C68         16.6500    75.1900    14.6390 c6         1 BLM       0.207300
     81 C67         15.3230    75.1720    15.3830 c6         1 BLM       0.146300
     82 C65         14.1750    75.1870    14.3560 c6         1 BLM       0.135300
     83 O64         14.3090    76.3020    13.4630 os         1 BLM      -0.460000
     84 C64         15.5160    76.3280    12.7360 c6         1 BLM       0.348300
     85 O68         17.6910    75.2500    15.6340 os         1 BLM      -0.440100
     86 O67         15.2930    73.9860    16.1670 oh         1 BLM      -0.704000
     87 O69         16.7170    77.5740    14.4400 oh         1 BLM      -0.708000
     88 C70         18.9180    74.8220    15.2840 c          1 BLM       0.650100
     89 O70         19.2190    74.4470    14.1570 o          1 BLM      -0.582000
     90 HA2         18.8490    74.2840    12.2150 hn         1 BLM       0.334500
     91 HA1         17.8280    74.1270    10.8240 hn         1 BLM       0.334500
     92 H2          21.8480    74.6750    10.2380 h1         1 BLM       0.073700
     93 HNC         21.6660    71.7710    10.2690 hn         1 BLM       0.437000
     94 H3E         22.7990    73.2510    11.8490 h1         1 BLM       0.027700
     95 H3X         21.3220    73.1920    12.8040 h1         1 BLM       0.027700
     96 HB1         22.0940    75.8600    12.2160 hn         1 BLM       0.397000
     97 HB2         20.6700    75.3540    12.8280 hn         1 BLM       0.397000
     98 HD2         24.4930    69.7250    14.2910 hn         1 BLM       0.317000
     99 HD1         24.1830    68.0190    14.3440 hn         1 BLM       0.317000
    100 H5E         23.2900    71.1810    13.0470 hc         1 BLM       0.066200
    101 H5X         23.4780    70.4460    11.4530 hc         1 BLM       0.066200
    102 H6          21.0470    69.8960    11.4100 h1         1 BLM       0.104700
    103 HF2         21.8060    70.9320    16.7690 hn         1 BLM       0.485500
    104 HF1         20.2730    71.0080    17.5390 hn         1 BLM       0.485500
    105 HAA         16.9300    71.2770    16.3280 hc         1 BLM       0.055033
    106 HAB         18.1460    70.4020    17.2660 hc         1 BLM       0.055033
    107 HAC         18.2710    72.1510    17.0910 hc         1 BLM       0.055033
    108 HNH         17.5590    70.8530    11.6850 hn         1 BLM       0.403500
    109 H13         14.7330    71.3750    12.2970 h1         1 BLM       0.094700
    110 H14         14.5030    71.2730     9.8120 h1         1 BLM       0.087700
    111 H28         15.6300    70.8590     7.2830 h4         1 BLM       0.039100
    112 H29         19.5330    70.3030     8.5760 h5         1 BLM       0.045100
    113 HNI         16.8010    63.3600     7.3990 DU         1 BLM      -0.053000
    114 HNK         16.6640    68.6520    12.0090 hn         1 BLM       0.326500
    115 H34         16.8930    68.2130     9.5420 hc         1 BLM       0.087700
    116 HO2         16.3350    64.5060    11.0510 ho         1 BLM       0.446000
    117 H31         14.4500    66.9740    11.0070 h1         1 BLM       0.095700
    118 HBA         15.0050    65.2260    12.6880 hc         1 BLM       0.043033
    119 HBB         16.2660    66.2740    13.3690 hc         1 BLM       0.043033
    120 HBC         14.5610    66.7410    13.4740 hc         1 BLM       0.043033
    121 H33         17.4460    66.4510    11.1230 h1         1 BLM       0.032700
    122 HCB         14.5750    67.7280     8.9330 hc         1 BLM       0.049367
    123 HCC         15.5650    67.7200     7.4750 hc         1 BLM       0.049367
    124 HCA         15.0420    66.1900     8.1840 hc         1 BLM       0.049367
    125 HNL         19.1090    67.4540     9.8780 hn         1 BLM       0.344500
    126 H37         20.5080    66.8980     7.5850 h1         1 BLM       0.069700
    127 H38         21.2380    65.9410    10.3730 h1         1 BLM       0.054700
    128 HO3         21.7600    68.0380    10.8330 ho         1 BLM       0.486000
    129 HDB         23.5440    66.5420     9.6940 hc         1 BLM       0.044033
    130 HDC         22.8840    65.3260     8.5990 hc         1 BLM       0.044033
    131 HDA         22.9570    67.0220     8.0910 hc         1 BLM       0.044033
    132 HNM         21.0700    65.1380     6.4340 hn         1 BLM       0.328500
    133 H2E         21.9920    62.5810     8.4400 hc         1 BLM       0.075700
    134 H2X         22.9260    62.7560     6.9530 hc         1 BLM       0.075700
    135 H1E         19.8740    62.5560     7.0380 h1         1 BLM       0.057200
    136 H1X         20.8560    62.9740     5.6340 h1         1 BLM       0.057200
    137 H44         21.1800    57.4810     7.4120 h4         1 BLM       0.179000
    138 HNP         22.4670    54.5450     5.4790 hn         1 BLM       0.342500
    139 H501        21.9360    52.3080     4.4110 h1         1 BLM       0.065200
    140 H502        23.6750    52.1970     4.1130 h1         1 BLM       0.065200
    141 H511        24.1260    52.1890     6.5420 hc         1 BLM       0.060200
    142 H512        22.4220    52.4550     6.9000 hc         1 BLM       0.060200
    143 H521        23.5110    49.9900     5.4160 h1         1 BLM       0.074200
    144 H522        23.2490    50.0400     7.1680 h1         1 BLM       0.074200
    145 H53         20.3070    52.1990     6.0290 DU         1 BLM      -0.053000
    146 H551        19.5410    49.4670     7.5270 h1         1 BLM       0.076867
    147 H552        21.1770    49.2120     8.2310 h1         1 BLM       0.076867
    148 H553        20.5340    50.8780     7.9870 h1         1 BLM       0.076867
    149 H541        20.6080    47.6230     5.6950 h1         1 BLM       0.076867
    150 H542        22.0380    48.0410     4.7060 h1         1 BLM       0.076867
    151 H543        22.2180    47.7690     6.4740 h1         1 BLM       0.076867
    152 HO59        13.0420    77.1080     8.6700 ho         1 BLM       0.497000
    153 HO58        16.8040    76.0260     8.5220 ho         1 BLM       0.504000
    154 H611        13.2700    74.2470     6.2960 h1         1 BLM       0.036700
    155 H612        12.0230    73.8830     7.5080 h1         1 BLM       0.036700
    156 HO61        12.5110    71.9980     6.2960 ho         1 BLM       0.502000
    157 H60         14.9940    73.6110     8.0460 h1         1 BLM       0.091700
    158 H63         13.8830    73.2030    11.4590 h2         1 BLM       0.081700
    159 H57         13.7730    75.5300    11.1540 h1         1 BLM       0.084700
    160 H58         15.1380    76.9180     9.7940 h1         1 BLM       0.022700
    161 H59         14.6510    75.9290     7.5030 h1         1 BLM       0.039700
    162 H69         17.6360    76.3040    13.0770 h1         1 BLM       0.084700
    163 H68         16.7560    74.2620    14.0740 h1         1 BLM       0.106700
    164 H67         15.2530    76.0590    16.0220 h1         1 BLM       0.064700
    165 H65         14.2140    74.2500    13.7890 h1         1 BLM       0.080700
    166 H64         15.4680    77.2500    12.1480 h2         1 BLM       0.069700
    167 HO67        14.5980    74.0610    16.8330 ho         1 BLM       0.504000
    168 HO69        16.9460    78.3090    13.8570 ho         1 BLM       0.507000
    169 NF          20.8200    71.1340    16.7030 nv         1 BLM      -1.079900
    170 ND          23.9950    68.9250    13.9380 nt         1 BLM      -0.592000
    171 C66         12.8180    75.3090    15.0110 c3         1 BLM       0.167600
    172 C42         22.0040    62.3580     7.3730 c3         1 BLM      -0.137700
    173 NQ          19.7640    74.8480    16.3240 nt         1 BLM      -0.592000
    174 O66         11.8140    75.0860    14.0240 oh         1 BLM      -0.711000
    175 H47         25.3400    56.9250     2.8710 h4         1 BLM       0.179000
    176 C49         23.8950    54.7360     4.0730 c          1 BLM       0.531600
    177 HNQ1        19.4820    75.2280    17.2110 hn         1 BLM       0.331500
    178 HNQ2        20.7340    74.6310    16.1630 hn         1 BLM       0.331500
    179 HO66        10.9540    75.0620    14.4660 ho         1 BLM       0.504000
    180 H661        12.7330    74.5670    15.8120 h1         1 BLM       0.029200
    181 H662        12.7190    76.3100    15.4530 h1         1 BLM       0.029200
@<TRIPOS>BOND
     1     1     3 1   
     2     1    90 1   
     3     1    91 1   
     4     2     3 1   
     5     2     6 1   
     6     2     7 1   
     7     2    92 1   
     8     3     4 2   
     9     5     6 1   
    10     5    17 1   
    11     5    93 1   
    12     6    94 1   
    13     6    95 1   
    14     7    96 1   
    15     7    97 1   
    16     8     9 1   
    17     8    17 1   
    18     8   100 1   
    19     8   101 1   
    20     9    10 2   
    21     9   170 1   
    22    11    12 ar  
    23    11    16 ar  
    24    11   169 1   
    25    12    13 ar  
    26    12    18 1   
    27    13    14 ar  
    28    13    19 1   
    29    14    15 ar  
    30    15    16 ar  
    31    15    17 1   
    32    17   102 1   
    33    18   105 1   
    34    18   106 1   
    35    18   107 1   
    36    19    20 2   
    37    19    21 1   
    38    21    22 1   
    39    21   108 1   
    40    22    23 1   
    41    22    25 1   
    42    22   109 1   
    43    23    24 2   
    44    23    32 1   
    45    25    26 1   
    46    25    27 1   
    47    25   110 1   
    48    26    28 2   
    49    26    29 1   
    50    27    75 1   
    51    28    30 2   
    52    29    31 2   
    53    29   111 1   
    54    30    31 1   
    55    30   112 1   
    56    32    37 1   
    57    32   114 1   
    58    33    34 1   
    59    33    39 1   
    60    33    40 1   
    61    33   115 1   
    62    34    35 2   
    63    34    41 1   
    64    36    39 1   
    65    36   116 1   
    66    37    38 1   
    67    37    39 1   
    68    37   117 1   
    69    38   118 1   
    70    38   119 1   
    71    38   120 1   
    72    39   121 1   
    73    40   122 1   
    74    40   123 1   
    75    40   124 1   
    76    41    42 1   
    77    41   125 1   
    78    42    43 1   
    79    42    45 1   
    80    42   126 1   
    81    43    44 2   
    82    43    48 1   
    83    45    46 1   
    84    45    47 1   
    85    45   127 1   
    86    46   128 1   
    87    47   129 1   
    88    47   130 1   
    89    47   131 1   
    90    48    51 1   
    91    48   132 1   
    92    49   176 2   
    93    50    52 1   
    94    50    55 2   
    95    50   172 1   
    96    51   135 1   
    97    51   136 1   
    98    51   172 1   
    99    52    53 1   
   100    53    54 2   
   101    53   137 1   
   102    54    55 1   
   103    54    59 1   
   104    56    57 2   
   105    56    60 1   
   106    56   175 1   
   107    57    58 1   
   108    57   176 1   
   109    58    59 2   
   110    59    60 1   
   111    61    62 1   
   112    61   138 1   
   113    61   176 1   
   114    62    63 1   
   115    62   139 1   
   116    62   140 1   
   117    63    64 1   
   118    63   141 1   
   119    63   142 1   
   120    64    65 1   
   121    64   143 1   
   122    64   144 1   
   123    65    66 1   
   124    65    67 1   
   125    66   146 1   
   126    66   147 1   
   127    66   148 1   
   128    67   149 1   
   129    67   150 1   
   130    67   151 1   
   131    68    78 1   
   132    68   152 1   
   133    69    77 1   
   134    69   153 1   
   135    70    71 1   
   136    70    73 1   
   137    70   154 1   
   138    70   155 1   
   139    71   156 1   
   140    72    76 1   
   141    72    84 1   
   142    73    74 1   
   143    73    78 1   
   144    73   157 1   
   145    74    75 1   
   146    75    76 1   
   147    75   158 1   
   148    76    77 1   
   149    76   159 1   
   150    77    78 1   
   151    77   160 1   
   152    78   161 1   
   153    79    80 1   
   154    79    84 1   
   155    79    87 1   
   156    79   162 1   
   157    80    81 1   
   158    80    85 1   
   159    80   163 1   
   160    81    82 1   
   161    81    86 1   
   162    81   164 1   
   163    82    83 1   
   164    82   165 1   
   165    82   171 1   
   166    83    84 1   
   167    84   166 1   
   168    85    88 1   
   169    86   167 1   
   170    87   168 1   
   171    88    89 2   
   172    88   173 1   
   173    98   170 1   
   174    99   170 1   
   175   103   169 1   
   176   104   169 1   
   177   133   172 1   
   178   134   172 1   
   179   171   174 1   
   180   171   180 1   
   181   171   181 1   
   182   173   177 1   
   183   173   178 1   
   184   174   179 1   
@<TRIPOS>SUBSTRUCTURE
     1 BLM         1 TEMP              0 ****  ****    0 ROOT
