@<TRIPOS>MOLECULE
BLN
   59    60     1     0     0
SMALL
bcc


@<TRIPOS>ATOM
      1 H1           3.3840     0.7910     0.4210 c          1 BLN       0.414000
      2 H2           5.6190     1.7000     0.6420 c6         1 BLN      -0.056500
      3 H3           6.9070     1.2570     1.3080 c6         1 BLN      -0.030500
      4 H5           6.6840    -0.8980     0.4970 c6         1 BLN      -0.030500
      5 H6           5.3720    -0.5690    -0.1970 c6         1 BLN      -0.056500
      6 H1           2.8940     1.8310     0.8490 o          1 BLN      -0.405000
      7 H2           7.5330     0.2190     0.5880 os         1 BLN      -0.253000
      8 H1           4.7340     0.5610     0.4550 n3         1 BLN      -0.338000
      9 H            2.6040    -0.2120    -0.0680 n7         1 BLN      -0.386000
     10 HA           1.1850    -0.0210    -0.2510 c3         1 BLN       0.021000
     11 HB           0.8780     0.6930    -1.5790 c3         1 BLN      -0.178000
     12 HG          -0.5850     1.0470    -1.8470 c3         1 BLN      -0.099000
     13 HD1         -1.1390     2.0280    -0.8170 c3         1 BLN      -0.206000
     14 HD2         -0.7150     1.6260    -3.2530 c3         1 BLN      -0.206000
     15 H            0.5340    -1.3950    -0.2380 c          1 BLN       0.309000
     16 H            1.0450    -2.3610    -0.7780 o          1 BLN      -0.361000
     17 H13         -2.6620    -2.4980     1.2750 c3         1 BLN      -0.026000
     18 H2          -0.6620    -1.4630     0.3730 n7         1 BLN      -0.374000
     19 HD          -4.4710    -1.0360     1.6560 c3         1 BLN       0.028000
     20 H7          -5.0790     0.2200     1.1060 ca         1 BLN      -0.087000
     21 H8          -6.3140     0.1950     0.4670 ca         1 BLN      -0.105000
     22 H9          -6.8540     1.3560    -0.0740 ca         1 BLN      -0.131000
     23 H4          -6.1550     2.5520     0.0140 ca         1 BLN      -0.116000
     24 H10         -4.9190     2.5850     0.6490 ca         1 BLN      -0.131000
     25 H11         -4.3860     1.4250     1.1910 ca         1 BLN      -0.105000
     26 H14         -1.9280    -2.9390    -1.0220 c1         1 BLN      -0.156000
     27 H40         -2.2940    -3.1600    -2.0890 n1         1 BLN      -0.024000
     28 H12         -1.4670    -2.6580     0.3470 c3         1 BLN       0.141000
     29 HC21         5.8450     2.1680    -0.3250 ha         1 BLN       0.096250
     30 HC22         5.1340     2.4460     1.2670 ha         1 BLN       0.096250
     31 HC31         7.6030     2.0960     1.3490 ha         1 BLN       0.094000
     32 HC32         6.6980     0.9380     2.3380 ha         1 BLN       0.094000
     33 HC51         7.2070    -1.6680    -0.0710 ha         1 BLN       0.094000
     34 HC52         6.4670    -1.3010     1.4970 ha         1 BLN       0.094000
     35 HC61         4.7540    -1.4630    -0.1260 ha         1 BLN       0.096250
     36 HC62         5.5470    -0.3620    -1.2600 ha         1 BLN       0.096250
     37 HN           3.0090    -0.9580    -0.6090 ha         1 BLN       0.241000
     38 HCA          0.8100     0.5710     0.5850 ha         1 BLN       0.131000
     39 HCB1         1.2610     0.0720    -2.3950 ha         1 BLN       0.096500
     40 HCB2         1.4680     1.6140    -1.5880 ha         1 BLN       0.096500
     41 HCG         -1.1940     0.1370    -1.8160 ha         1 BLN       0.093000
     42 HD11        -2.1750     2.2850    -1.0430 ha         1 BLN       0.073833
     43 HD12        -1.1250     1.6350     0.2010 ha         1 BLN       0.073833
     44 HD13        -0.5570     2.9530    -0.8110 ha         1 BLN       0.073833
     45 HD21        -0.1150     2.5330    -3.3600 ha         1 BLN       0.073833
     46 HD22        -0.3760     0.9130    -4.0070 ha         1 BLN       0.073833
     47 HD23        -1.7510     1.8830    -3.4780 ha         1 BLN       0.073833
     48 HB'1        -3.2540    -3.4210     1.2670 ha         1 BLN       0.082500
     49 HB'2        -2.2880    -2.3490     2.2960 ha         1 BLN       0.082500
     50 H1          -1.0930    -0.6260     0.7360 ha         1 BLN       0.252000
     51 HCD1        -5.2150    -1.8400     1.6920 ha         1 BLN       0.072500
     52 HCD2        -4.1140    -0.8750     2.6810 ha         1 BLN       0.072500
     53 H2'C        -6.8590    -0.7380     0.3900 ha         1 BLN       0.130000
     54 H3'C        -7.8160     1.3230    -0.5680 ha         1 BLN       0.133500
     55 H4'C        -6.5720     3.4570    -0.4080 ha         1 BLN       0.132000
     56 H5'C        -4.3730     3.5160     0.7250 ha         1 BLN       0.133500
     57 H6'C        -3.4240     1.4590     1.6900 ha         1 BLN       0.130000
     58 HA'C        -0.8830    -3.5190     0.6830 ha         1 BLN       0.137000
     59 HG          -3.3890    -1.3950     0.8170 os         1 BLN      -0.269000
@<TRIPOS>BOND
     1     1     6 2   
     2     1     8 1   
     3     1     9 1   
     4     2     3 1   
     5     2     8 1   
     6     2    29 1   
     7     2    30 1   
     8     3     7 1   
     9     3    31 1   
    10     3    32 1   
    11     4     5 1   
    12     4     7 1   
    13     4    33 1   
    14     4    34 1   
    15     5     8 1   
    16     5    35 1   
    17     5    36 1   
    18     9    10 1   
    19     9    37 1   
    20    10    11 1   
    21    10    15 1   
    22    10    38 1   
    23    11    12 1   
    24    11    39 1   
    25    11    40 1   
    26    12    13 1   
    27    12    14 1   
    28    12    41 1   
    29    13    42 1   
    30    13    43 1   
    31    13    44 1   
    32    14    45 1   
    33    14    46 1   
    34    14    47 1   
    35    15    16 2   
    36    15    18 1   
    37    17    28 1   
    38    17    48 1   
    39    17    49 1   
    40    17    59 1   
    41    18    28 1   
    42    18    50 1   
    43    19    20 1   
    44    19    51 1   
    45    19    52 1   
    46    19    59 1   
    47    20    21 ar  
    48    20    25 ar  
    49    21    22 ar  
    50    21    53 1   
    51    22    23 ar  
    52    22    54 1   
    53    23    24 ar  
    54    23    55 1   
    55    24    25 ar  
    56    24    56 1   
    57    25    57 1   
    58    26    27 3   
    59    26    28 1   
    60    28    58 1   
@<TRIPOS>SUBSTRUCTURE
     1 BLN         1 TEMP              0 ****  ****    0 ROOT
