@<TRIPOS>MOLECULE
BLN
   59    60     1     0     0
SMALL
No Charge or Current Charge


@<TRIPOS>ATOM
      1 C1           3.3830     0.9240     0.4270 c          1 BLN       0.653100
      2 C2           5.7130     1.8240     0.6830 c6         1 BLN       0.059500
      3 C3           7.1910     1.4290     0.9330 c6         1 BLN       0.143100
      4 C5           6.8710    -0.7910     0.1260 c6         1 BLN       0.143100
      5 C6           5.3660    -0.5580    -0.1710 c6         1 BLN       0.059500
      6 O1           2.9060     1.9920     0.7770 o          1 BLN      -0.644100
      7 O2           7.6150     0.4310    -0.0110 os         1 BLN      -0.443000
      8 N1           4.7720     0.6830     0.4330 n          1 BLN      -0.412800
      9 N            2.5940    -0.1200     0.0110 ns         1 BLN      -0.509900
     10 CA           1.1190    -0.0880    -0.0960 c3         1 BLN       0.047700
     11 CB           0.7060     0.6440    -1.4100 c3         1 BLN      -0.099400
     12 CG          -0.8150     0.8850    -1.6440 c3         1 BLN      -0.059700
     13 CD1         -1.4780     1.7200    -0.5200 c3         1 BLN      -0.088100
     14 CD2         -1.0570     1.5460    -3.0200 c3         1 BLN      -0.088100
     15 C            0.5620    -1.5410    -0.0010 c          1 BLN       0.598100
     16 O            1.2450    -2.5380    -0.2030 o          1 BLN      -0.600100
     17 C13         -2.8240    -2.6310     1.2740 c3         1 BLN       0.147600
     18 N2          -0.7610    -1.6370     0.3550 ns         1 BLN      -0.497900
     19 CD          -4.6130    -0.9950     1.4760 c3         1 BLN       0.208900
     20 C7          -5.0080     0.3660     0.9190 ca         1 BLN      -0.094300
     21 C8          -5.7190     0.4560    -0.2940 ca         1 BLN      -0.087000
     22 C9          -6.0640     1.7130    -0.8210 ca         1 BLN      -0.113000
     23 C4          -5.6980     2.8870    -0.1400 ca         1 BLN      -0.098000
     24 C10         -4.9860     2.8020     1.0690 ca         1 BLN      -0.113000
     25 C11         -4.6410     1.5460     1.5960 ca         1 BLN      -0.087000
     26 C14         -1.8590    -3.4070    -0.8950 c1         1 BLN       0.285900
     27 N40         -2.0830    -3.8260    -1.9600 n1         1 BLN      -0.439000
     28 C12         -1.5380    -2.8840     0.4480 c3         1 BLN       0.190800
     29 HC21         5.6760     2.4950    -0.1860 h1         1 BLN       0.056950
     30 HC22         5.3610     2.4030     1.5480 h1         1 BLN       0.056950
     31 HC31         7.8350     2.3150     0.8400 h1         1 BLN       0.054700
     32 HC32         7.3050     1.0330     1.9520 h1         1 BLN       0.054700
     33 HC51         7.2770    -1.5430    -0.5650 h1         1 BLN       0.054700
     34 HC52         6.9940    -1.1730     1.1500 h1         1 BLN       0.054700
     35 HC61         4.8190    -1.4430     0.1850 h1         1 BLN       0.056950
     36 HC62         5.2320    -0.5100    -1.2610 h1         1 BLN       0.056950
     37 HN           3.0690    -0.9780    -0.2370 hn         1 BLN       0.327500
     38 HCA          0.7290     0.4650     0.7690 h1         1 BLN       0.091700
     39 HCB1         1.1050     0.0720    -2.2570 hc         1 BLN       0.057200
     40 HCB2         1.2110     1.6170    -1.4390 hc         1 BLN       0.057200
     41 HCG         -1.3210    -0.0870    -1.6830 hc         1 BLN       0.053700
     42 HD11        -2.5410     1.8820    -0.7380 hc         1 BLN       0.034533
     43 HD12        -1.4150     1.2160     0.4500 hc         1 BLN       0.034533
     44 HD13        -0.9960     2.7010    -0.4290 hc         1 BLN       0.034533
     45 HD21        -0.5870     2.5360    -3.0670 hc         1 BLN       0.034533
     46 HD22        -0.6400     0.9300    -3.8260 hc         1 BLN       0.034533
     47 HD23        -2.1300     1.6660    -3.2100 hc         1 BLN       0.034533
     48 HB'1        -3.5090    -3.4860     1.1890 h1         1 BLN       0.043200
     49 HB'2        -2.5490    -2.5170     2.3300 h1         1 BLN       0.043200
     50 H1          -1.2680    -0.7720     0.4990 hn         1 BLN       0.338500
     51 HCD1        -5.4310    -1.7120     1.3250 h1         1 BLN       0.033200
     52 HCD2        -4.4250    -0.9120     2.5550 h1         1 BLN       0.033200
     53 H2'C        -5.9990    -0.4480    -0.8300 ha         1 BLN       0.112000
     54 H3'C        -6.6120     1.7770    -1.7580 ha         1 BLN       0.115500
     55 H4'C        -5.9640     3.8590    -0.5490 ha         1 BLN       0.114000
     56 H5'C        -4.6990     3.7100     1.5950 ha         1 BLN       0.115500
     57 H6'C        -4.0830     1.4890     2.5280 ha         1 BLN       0.112000
     58 HA'C        -0.9380    -3.6430     0.9660 h1         1 BLN       0.097700
     59 OG          -3.4310    -1.4170     0.7830 os         1 BLN      -0.459000
@<TRIPOS>BOND
     1     1     6 2   
     2     1     8 1   
     3     1     9 1   
     4     2     3 1   
     5     2     8 1   
     6     2    29 1   
     7     2    30 1   
     8     3     7 1   
     9     3    31 1   
    10     3    32 1   
    11     4     5 1   
    12     4     7 1   
    13     4    33 1   
    14     4    34 1   
    15     5     8 1   
    16     5    35 1   
    17     5    36 1   
    18     9    10 1   
    19     9    37 1   
    20    10    11 1   
    21    10    15 1   
    22    10    38 1   
    23    11    12 1   
    24    11    39 1   
    25    11    40 1   
    26    12    13 1   
    27    12    14 1   
    28    12    41 1   
    29    13    42 1   
    30    13    43 1   
    31    13    44 1   
    32    14    45 1   
    33    14    46 1   
    34    14    47 1   
    35    15    16 2   
    36    15    18 1   
    37    17    28 1   
    38    17    48 1   
    39    17    49 1   
    40    17    59 1   
    41    18    28 1   
    42    18    50 1   
    43    19    20 1   
    44    19    51 1   
    45    19    52 1   
    46    19    59 1   
    47    20    21 ar  
    48    20    25 ar  
    49    21    22 ar  
    50    21    53 1   
    51    22    23 ar  
    52    22    54 1   
    53    23    24 ar  
    54    23    55 1   
    55    24    25 ar  
    56    24    56 1   
    57    25    57 1   
    58    26    27 3   
    59    26    28 1   
    60    28    58 1   
@<TRIPOS>SUBSTRUCTURE
     1 BLN         1 TEMP              0 ****  ****    0 ROOT
