@<TRIPOS>MOLECULE
BLO
   54    55     1     0     0
SMALL
No Charge or Current Charge


@<TRIPOS>ATOM
      1 O7          -1.1850     2.2740    -0.2450 o          1 BLO      -0.635100
      2 C7          -1.4110     1.1880     0.2730 c          1 BLO       0.611100
      3 C8          -2.7660     0.8420     0.8940 c3         1 BLO      -0.157400
      4 C9          -3.8410     0.6080    -0.1860 c3         1 BLO       0.179500
      5 C10         -5.2650     0.5650     0.4130 c3         1 BLO      -0.157400
      6 C11         -6.3940     0.5010    -0.6430 c3         1 BLO       0.218800
      7 N12         -7.7530     0.6100    -0.0640 nh         1 BLO      -0.768600
      8 C14         -8.5340    -0.4740     0.1250 c2         1 BLO       0.808100
      9 N15         -9.7310    -0.5150    -0.2330 n2         1 BLO      -0.918100
     10 N14         -7.9860    -1.3920     0.8890 nv         1 BLO      -1.062200
     11 C13         -8.3120     1.9760     0.0390 c3         1 BLO       0.229100
     12 N9          -3.5470    -0.6430    -0.9010 n8         1 BLO      -1.001200
     13 N6          -0.4450     0.2140     0.3850 ns         1 BLO      -0.476900
     14 C4           0.9520     0.3240    -0.0620 c6         1 BLO       0.105900
     15 C3           1.7030     1.3260     0.8110 c2         1 BLO      -0.144200
     16 C2           2.9650     1.1130     1.2230 c2         1 BLO      -0.301200
     17 C5           1.6730    -1.0540    -0.0370 c6         1 BLO       0.020300
     18 C6           1.0330    -2.0330    -1.0810 c          1 BLO       0.735000
     19 O3           0.3680    -2.9420    -0.5970 o          1 BLO      -0.708000
     20 O4           1.6580    -2.2320    -2.1170 o          1 BLO      -0.708000
     21 O5           3.1100    -0.8580    -0.2070 os         1 BLO      -0.408000
     22 C1           3.7420    -0.1510     0.8780 c6         1 BLO       0.372900
     23 N1           5.1450     0.1070     0.5040 n          1 BLO      -0.292000
     24 C17          6.1740    -0.4650     1.2470 cc         1 BLO       0.036600
     25 C16          7.4790    -0.2220     0.8950 cd         1 BLO      -0.478600
     26 C12          7.7140     0.6100    -0.2230 cd         1 BLO       0.754900
     27 O1           8.9350     0.8920    -0.6260 oh         1 BLO      -0.613600
     28 N3           6.7640     1.1490    -0.9210 nc         1 BLO      -0.790100
     29 C15          5.4440     0.9320    -0.6030 c          1 BLO       0.716400
     30 O2           4.5860     1.4660    -1.2870 o          1 BLO      -0.488000
     31 H81         -3.0770     1.6950     1.5090 hc         1 BLO       0.052700
     32 H82         -2.6870    -0.0520     1.5240 hc         1 BLO       0.052700
     33 H9          -3.7890     1.4420    -0.9030 h1         1 BLO       0.066700
     34 H101        -5.4160     1.4690     1.0150 hc         1 BLO       0.045200
     35 H102        -5.3480    -0.2840     1.1010 hc         1 BLO       0.045200
     36 H111        -6.3120    -0.4300    -1.2210 h1         1 BLO       0.055200
     37 H112        -6.2360     1.3230    -1.3550 h1         1 BLO       0.055200
     38 H15        -10.0980    -1.4230     0.0670 hn         1 BLO       0.371400
     39 H141        -8.6280    -1.7410     1.5860 hn         1 BLO       0.453000
     40 H142        -7.1280    -1.0300     1.2750 hn         1 BLO       0.453000
     41 H131        -7.5250     2.7360    -0.0650 h1         1 BLO       0.035033
     42 H132        -9.0600     2.1480    -0.7470 h1         1 BLO       0.035033
     43 H133        -8.7930     2.1170     1.0150 h1         1 BLO       0.035033
     44 HN91        -3.8320    -1.4380    -0.3180 hn         1 BLO       0.408500
     45 HN92        -4.1550    -0.7190    -1.7240 hn         1 BLO       0.408500
     46 HN6         -0.7450    -0.6530     0.8150 hn         1 BLO       0.354500
     47 H4           0.9520     0.6950    -1.0990 h1         1 BLO       0.097700
     48 H3           1.1770     2.2450     1.0730 ha         1 BLO       0.185000
     49 H2           3.4870     1.8450     1.8390 ha         1 BLO       0.167000
     50 H5           1.5210    -1.5050     0.9550 h1         1 BLO       0.022700
     51 H1           3.7380    -0.8040     1.7620 h2         1 BLO       0.020700
     52 H6           5.8340    -1.0820     2.0760 h4         1 BLO       0.201000
     53 H7           8.3110    -0.6470     1.4430 ha         1 BLO       0.208000
     54 HO1          8.7250     1.4650    -1.3880 ho         1 BLO       0.487000
@<TRIPOS>BOND
     1     1     2 2   
     2     2     3 1   
     3     2    13 1   
     4     3     4 1   
     5     3    31 1   
     6     3    32 1   
     7     4     5 1   
     8     4    12 1   
     9     4    33 1   
    10     5     6 1   
    11     5    34 1   
    12     5    35 1   
    13     6     7 1   
    14     6    36 1   
    15     6    37 1   
    16     7     8 1   
    17     7    11 1   
    18     8     9 2   
    19     8    10 1   
    20     9    38 1   
    21    10    39 1   
    22    10    40 1   
    23    11    41 1   
    24    11    42 1   
    25    11    43 1   
    26    12    44 1   
    27    12    45 1   
    28    13    14 1   
    29    13    46 1   
    30    14    15 1   
    31    14    17 1   
    32    14    47 1   
    33    15    16 2   
    34    15    48 1   
    35    16    22 1   
    36    16    49 1   
    37    17    18 1   
    38    17    21 1   
    39    17    50 1   
    40    18    19 1   
    41    18    20 1   
    42    21    22 1   
    43    22    23 1   
    44    22    51 1   
    45    23    24 1   
    46    23    29 1   
    47    24    25 2   
    48    24    52 1   
    49    25    26 1   
    50    25    53 1   
    51    26    27 1   
    52    26    28 2   
    53    27    54 1   
    54    28    29 1   
    55    29    30 2   
@<TRIPOS>SUBSTRUCTURE
     1 BLO         1 TEMP              0 ****  ****    0 ROOT
