@<TRIPOS>MOLECULE
BLO
   54    55     1     0     0
SMALL
abcg2


@<TRIPOS>ATOM
      1 O7          -1.0890     2.7760     0.1670 o          1 BLO      -0.635100
      2 C7          -1.4300     1.7560     0.7530 c          1 BLO       0.611100
      3 C8          -2.8670     1.5020     1.1480 c3         1 BLO      -0.157400
      4 C9          -3.7260     1.2580    -0.0970 c3         1 BLO       0.179500
      5 C10         -5.1350     0.8360     0.3290 c3         1 BLO      -0.157400
      6 C11         -6.1290     0.8030    -0.8290 c3         1 BLO       0.218800
      7 N12         -7.4480     0.3330    -0.4620 nh         1 BLO      -0.768600
      8 C14         -7.7510    -0.9990    -0.3660 c2         1 BLO       0.808100
      9 N15         -8.8900    -1.3570     0.1130 n2         1 BLO      -0.918100
     10 N14         -6.8130    -1.8730    -0.8870 nv         1 BLO      -1.062200
     11 C13         -8.3290     1.2700     0.1980 c3         1 BLO       0.229100
     12 N9          -3.0410     0.3120    -0.9660 n8         1 BLO      -1.001200
     13 N6          -0.5770     0.7740     1.0910 ns         1 BLO      -0.476900
     14 C4           0.7500     0.6590     0.5200 c6         1 BLO       0.105900
     15 C3           1.7080     1.6800     1.0720 c2         1 BLO      -0.144200
     16 C2           2.9780     1.3820     1.2990 c2         1 BLO      -0.301200
     17 C5           1.2990    -0.7430     0.8400 c6         1 BLO       0.020300
     18 C6           0.4500    -1.8700     0.2170 c          1 BLO       0.735000
     19 O3          -0.6900    -1.9870     0.7260 o          1 BLO      -0.708000
     20 O4           0.9390    -2.5380    -0.6990 o          1 BLO      -0.708000
     21 O5           2.6290    -0.8250     0.3810 os         1 BLO      -0.408000
     22 C1           3.5020    -0.0060     1.0920 c6         1 BLO       0.372900
     23 N1           4.7850    -0.0410     0.4060 n          1 BLO      -0.292000
     24 C17          5.8060    -0.7410     0.9520 cc         1 BLO       0.036600
     25 C16          7.0090    -0.8370     0.3470 cd         1 BLO      -0.478600
     26 C12          7.1180    -0.1580    -0.8930 cd         1 BLO       0.754900
     27 O1           8.2830    -0.2170    -1.5070 oh         1 BLO      -0.613600
     28 N3           6.1450     0.5030    -1.4440 nc         1 BLO      -0.790100
     29 C15          4.9250     0.5810    -0.8470 c          1 BLO       0.716400
     30 O2           3.9830     1.1600    -1.3510 o          1 BLO      -0.488000
     31 H81         -3.2530     2.3680     1.6900 hc         1 BLO       0.052700
     32 H82         -2.9460     0.6430     1.8200 hc         1 BLO       0.052700
     33 H9          -3.7960     2.2030    -0.6460 h1         1 BLO       0.066700
     34 H101        -5.5100     1.5220     1.0950 hc         1 BLO       0.045200
     35 H102        -5.0750    -0.1510     0.8030 hc         1 BLO       0.045200
     36 H111        -5.7510     0.2010    -1.6580 h1         1 BLO       0.055200
     37 H112        -6.2380     1.8110    -1.2360 h1         1 BLO       0.055200
     38 H15         -8.9740    -2.3660     0.1060 hn         1 BLO       0.371400
     39 H141        -6.9900    -2.8380    -0.6580 hn         1 BLO       0.453000
     40 H142        -5.8390    -1.6520    -0.7570 hn         1 BLO       0.453000
     41 H131        -8.0310     2.2810    -0.0720 h1         1 BLO       0.035033
     42 H132        -9.3600     1.1240    -0.1180 h1         1 BLO       0.035033
     43 H133        -8.3010     1.1850     1.2880 h1         1 BLO       0.035033
     44 HN91        -2.9210    -0.5820    -0.5020 hn         1 BLO       0.408500
     45 HN92        -3.5740     0.1370    -1.8080 hn         1 BLO       0.408500
     46 HN6         -0.9800    -0.1230     1.3410 hn         1 BLO       0.354500
     47 H4           0.6940     0.7780    -0.5710 h1         1 BLO       0.097700
     48 H3           1.3380     2.6780     1.2700 ha         1 BLO       0.185000
     49 H2           3.6660     2.1050     1.7210 ha         1 BLO       0.167000
     50 H5           1.2710    -0.8660     1.9340 h1         1 BLO       0.022700
     51 H1           3.6980    -0.4320     2.0890 h2         1 BLO       0.020700
     52 H6           5.6070    -1.2180     1.9020 h4         1 BLO       0.201000
     53 H7           7.8240    -1.3920     0.7840 ha         1 BLO       0.208000
     54 HO1          8.2340     0.2790    -2.3380 ho         1 BLO       0.487000
@<TRIPOS>BOND
     1     1     2 2   
     2     2     3 1   
     3     2    13 1   
     4     3     4 1   
     5     3    31 1   
     6     3    32 1   
     7     4     5 1   
     8     4    12 1   
     9     4    33 1   
    10     5     6 1   
    11     5    34 1   
    12     5    35 1   
    13     6     7 1   
    14     6    36 1   
    15     6    37 1   
    16     7     8 1   
    17     7    11 1   
    18     8     9 2   
    19     8    10 1   
    20     9    38 1   
    21    10    39 1   
    22    10    40 1   
    23    11    41 1   
    24    11    42 1   
    25    11    43 1   
    26    12    44 1   
    27    12    45 1   
    28    13    14 1   
    29    13    46 1   
    30    14    15 1   
    31    14    17 1   
    32    14    47 1   
    33    15    16 2   
    34    15    48 1   
    35    16    22 1   
    36    16    49 1   
    37    17    18 1   
    38    17    21 1   
    39    17    50 1   
    40    18    19 1   
    41    18    20 1   
    42    21    22 1   
    43    22    23 1   
    44    22    51 1   
    45    23    24 1   
    46    23    29 1   
    47    24    25 2   
    48    24    52 1   
    49    25    26 1   
    50    25    53 1   
    51    26    27 1   
    52    26    28 2   
    53    27    54 1   
    54    28    29 1   
    55    29    30 2   
@<TRIPOS>SUBSTRUCTURE
     1 BLO         1 TEMP              0 ****  ****    0 ROOT
