@<TRIPOS>MOLECULE
BLQ
   39    40     1     0     0
SMALL
bcc


@<TRIPOS>ATOM
      1 CAA          3.6130     0.5210     0.0010 cc         1 BLQ       0.382900
      2 CAB          4.0360     1.8990    -0.0680 cc         1 BLQ      -0.220600
      3 CAC          5.3410     2.2030     0.0030 cd         1 BLQ      -0.217200
      4 CAD          6.3930     1.1850     0.1510 c          1 BLQ       0.562500
      5 CAE          5.9530    -0.2170     0.1660 cd         1 BLQ      -0.215400
      6 CAF          4.6310    -0.4890     0.1330 cc         1 BLQ      -0.186600
      7 CAG         -0.9620     1.3190    -0.3370 ca         1 BLQ      -0.194000
      8 CAH          6.9530    -1.3640     0.1970 c          1 BLQ       0.932800
      9 CAI         -3.9810    -0.9920    -0.3590 c          1 BLQ       0.670700
     10 CAJ         -6.3550    -0.5010     0.0240 c3         1 BLQ       0.114000
     11 CAK         -8.7180     0.4670     0.3200 c          1 BLQ       0.933600
     12 CAL         -7.2010     0.7290     0.2880 c3         1 BLQ      -0.230400
     13 CAM          0.0740     0.3950    -0.2110 ca         1 BLQ       0.200600
     14 CAN         -0.2170    -0.9680    -0.1420 ca         1 BLQ      -0.194000
     15 CAO         -1.5340    -1.3840    -0.1980 ca         1 BLQ      -0.063500
     16 CAP         -2.5830    -0.4710    -0.3020 ca         1 BLQ      -0.183600
     17 CAQ         -2.2730     0.8860    -0.3790 ca         1 BLQ      -0.063500
     18 NAR          1.3730     0.8770    -0.1640 nu         1 BLQ      -0.443700
     19 NAS          2.3860     0.0790    -0.0450 n2         1 BLQ      -0.384400
     20 NAT         -4.9470    -0.1420     0.0150 ns         1 BLQ      -0.562900
     21 OAU          7.5580     1.5340     0.2910 o          1 BLQ      -0.514100
     22 OAV          8.0010    -1.2000    -0.4520 o          1 BLQ      -0.814300
     23 OAW          6.6110    -2.3780     0.8330 o          1 BLQ      -0.814300
     24 OAX         -9.1050    -0.6990     0.1070 o          1 BLQ      -0.842800
     25 OAY         -4.2150    -2.1380    -0.7290 o          1 BLQ      -0.628100
     26 OAZ         -9.4350     1.4600     0.5550 o          1 BLQ      -0.842800
     27 HAB          3.3200     2.7050    -0.1700 ha         1 BLQ       0.102000
     28 HAC          5.6650     3.2370    -0.0350 ha         1 BLQ       0.120000
     29 HAF          4.2880    -1.5160     0.1890 ha         1 BLQ       0.162000
     30 HAG         -0.7450     2.3770    -0.4100 ha         1 BLQ       0.141000
     31 HAJ         -6.5450    -1.2640     0.7840 h1         1 BLQ       0.056200
     32 HAJA        -6.6160    -0.9410    -0.9390 h1         1 BLQ       0.056200
     33 HAL         -6.9110     1.1820     1.2430 hc         1 BLQ       0.019700
     34 HALA        -6.9960     1.4890    -0.4740 hc         1 BLQ       0.019700
     35 HAN          0.5770    -1.6940    -0.0490 ha         1 BLQ       0.141000
     36 HAO         -1.7480    -2.4430    -0.1520 ha         1 BLQ       0.140000
     37 HAQ         -3.0480     1.6310    -0.5020 ha         1 BLQ       0.140000
     38 HNAR         1.4910     1.8830    -0.2240 hn         1 BLQ       0.415800
     39 HNAT        -4.6910     0.7200     0.4670 hn         1 BLQ       0.301500
@<TRIPOS>BOND
     1     1     2 1   
     2     1     6 1   
     3     1    19 2   
     4     2     3 2   
     5     2    27 1   
     6     3     4 1   
     7     3    28 1   
     8     4     5 1   
     9     4    21 2   
    10     5     6 2   
    11     5     8 1   
    12     6    29 1   
    13     7    13 ar  
    14     7    17 ar  
    15     7    30 1   
    16     8    22 1   
    17     8    23 1   
    18     9    16 1   
    19     9    20 1   
    20     9    25 2   
    21    10    12 1   
    22    10    20 1   
    23    10    31 1   
    24    10    32 1   
    25    11    12 1   
    26    11    24 1   
    27    11    26 1   
    28    12    33 1   
    29    12    34 1   
    30    13    14 ar  
    31    13    18 1   
    32    14    15 ar  
    33    14    35 1   
    34    15    16 ar  
    35    15    36 1   
    36    16    17 ar  
    37    17    37 1   
    38    18    19 1   
    39    18    38 1   
    40    20    39 1   
@<TRIPOS>SUBSTRUCTURE
     1 BLQ         1 TEMP              0 ****  ****    0 ROOT
