@<TRIPOS>MOLECULE
BLQ
   39    40     1     0     0
SMALL
No Charge or Current Charge


@<TRIPOS>ATOM
      1 CAA          3.7320     0.4290    -0.0290 cc         1 BLQ       0.382900
      2 CAB          4.0780     1.8270    -0.1050 cc         1 BLQ      -0.270600
      3 CAC          5.4040     2.2180    -0.1280 cd         1 BLQ      -0.267200
      4 CAD          6.5390     1.2710    -0.0760 c          1 BLQ       0.562500
      5 CAE          6.1560    -0.1700     0.0030 cd         1 BLQ      -0.215400
      6 CAF          4.8010    -0.5290     0.0230 cc         1 BLQ      -0.236600
      7 CAG         -0.9940     1.2550    -0.0720 ca         1 BLQ      -0.176000
      8 CAH          7.2030    -1.2390     0.0610 c          1 BLQ       0.722200
      9 CAI         -4.0780    -1.0520     0.0560 c          1 BLQ       0.603700
     10 CAJ         -6.5030    -0.3970     0.0210 c3         1 BLQ       0.114000
     11 CAK         -8.8240     0.5180    -0.0290 c          1 BLQ       0.723000
     12 CAL         -7.3380     0.8920    -0.0500 c3         1 BLQ      -0.230400
     13 CAM          0.0570     0.3260    -0.0210 ca         1 BLQ       0.339000
     14 CAN         -0.2500    -1.0450     0.0540 ca         1 BLQ      -0.176000
     15 CAO         -1.5860    -1.4790     0.0780 ca         1 BLQ      -0.045500
     16 CAP         -2.6490    -0.5490     0.0280 ca         1 BLQ      -0.183600
     17 CAQ         -2.3350     0.8290    -0.0480 ca         1 BLQ      -0.045500
     18 NAR          1.3830     0.7910    -0.0470 nu         1 BLQ      -0.637300
     19 NAS          2.4990    -0.0120    -0.0040 n2         1 BLQ      -0.384400
     20 NAT         -5.0720    -0.0990     0.0040 ns         1 BLQ      -0.495900
     21 OAU          7.6850     1.7000    -0.1000 o          1 BLQ      -0.514100
     22 OAV          8.3890    -0.9520     0.0450 o          1 BLQ      -0.709000
     23 OAW          6.8340    -2.4040     0.1250 o          1 BLQ      -0.709000
     24 OAX         -9.3750     0.2910    -1.0950 o          1 BLQ      -0.737500
     25 OAY         -4.3500    -2.2430     0.1210 o          1 BLQ      -0.628100
     26 OAZ         -9.3740     0.4100     1.0560 o          1 BLQ      -0.737500
     27 HAB          3.2970     2.5760    -0.1460 ha         1 BLQ       0.152000
     28 HAC          5.6890     3.2630    -0.1850 ha         1 BLQ       0.170000
     29 HAF          4.5040    -1.5720     0.0810 ha         1 BLQ       0.212000
     30 HAG         -0.7760     2.3180    -0.1300 ha         1 BLQ       0.123000
     31 HAJ         -6.7410    -0.9440     0.9430 h1         1 BLQ       0.056200
     32 HAJA        -6.7420    -1.0420    -0.8360 h1         1 BLQ       0.056200
     33 HAL         -7.0710     1.4770     0.8390 hc         1 BLQ       0.019700
     34 HALA        -7.0710     1.3760    -0.9980 hc         1 BLQ       0.019700
     35 HAN          0.5470    -1.7810     0.0940 ha         1 BLQ       0.123000
     36 HAO         -1.7920    -2.5460     0.1370 ha         1 BLQ       0.122000
     37 HAQ         -3.1140     1.5860    -0.0890 ha         1 BLQ       0.122000
     38 HNAR         1.4590     1.8120    -0.1030 hn         1 BLQ       0.471000
     39 HNAT        -4.7830     0.8680    -0.0490 hn         1 BLQ       0.301500
@<TRIPOS>BOND
     1     1     2 1   
     2     1     6 1   
     3     1    19 2   
     4     2     3 2   
     5     2    27 1   
     6     3     4 1   
     7     3    28 1   
     8     4     5 1   
     9     4    21 2   
    10     5     6 2   
    11     5     8 1   
    12     6    29 1   
    13     7    13 ar  
    14     7    17 ar  
    15     7    30 1   
    16     8    22 1   
    17     8    23 1   
    18     9    16 1   
    19     9    20 1   
    20     9    25 2   
    21    10    12 1   
    22    10    20 1   
    23    10    31 1   
    24    10    32 1   
    25    11    12 1   
    26    11    24 1   
    27    11    26 1   
    28    12    33 1   
    29    12    34 1   
    30    13    14 ar  
    31    13    18 1   
    32    14    15 ar  
    33    14    35 1   
    34    15    16 ar  
    35    15    36 1   
    36    16    17 ar  
    37    17    37 1   
    38    18    19 1   
    39    18    38 1   
    40    20    39 1   
@<TRIPOS>SUBSTRUCTURE
     1 BLQ         1 TEMP              0 ****  ****    0 ROOT
