@<TRIPOS>MOLECULE
BLR
   77    80     1     0     0
SMALL
No Charge or Current Charge


@<TRIPOS>ATOM
      1 CHA         -0.2850     0.6580     2.5450 c3         1 BLR       0.054200
      2 NA           1.4360     0.9400     0.6950 na         1 BLR      -0.077000
      3 C1A          0.4050     1.4570     1.4680 cc         1 BLR      -0.167300
      4 C2A          0.1950     2.7370     1.0230 cd         1 BLR      -0.139300
      5 C3A          1.1230     2.9980    -0.0230 cd         1 BLR      -0.140300
      6 C4A          1.8870     1.8740    -0.2330 cc         1 BLR      -0.160800
      7 CMA          1.2370     4.2990    -0.7860 c3         1 BLR      -0.005800
      8 CAA         -0.8490     3.7030     1.5430 c3         1 BLR       0.014900
      9 CBA         -0.3280     4.5590     2.7200 c3         1 BLR      -0.203400
     10 CGA         -1.4300     5.5190     3.1940 c          1 BLR       0.713000
     11 O1A         -2.2070     5.1270     4.0520 o          1 BLR      -0.748500
     12 O2A         -1.5080     6.6170     2.6640 o          1 BLR      -0.748500
     13 CHB          2.9530     1.6530    -1.2130 ce         1 BLR      -0.113200
     14 NB           3.8720    -0.6410    -0.9330 ns         1 BLR      -0.412100
     15 C1B          3.7890     0.5960    -1.5150 cd         1 BLR       0.001600
     16 C2B          4.7800     0.6060    -2.5650 cd         1 BLR      -0.044200
     17 C3B          5.4010    -0.6350    -2.5440 cc         1 BLR      -0.189200
     18 C4B          4.8020    -1.4590    -1.4750 c          1 BLR       0.555200
     19 CMB          5.0800     1.7520    -3.5020 c3         1 BLR      -0.041900
     20 OB           5.0480    -2.6060    -1.1320 o          1 BLR      -0.560000
     21 CAB          6.4570    -1.1280    -3.4260 ce         1 BLR      -0.138000
     22 CBB          7.5640    -1.7780    -3.0130 c2         1 BLR      -0.327000
     23 NC          -4.3170    -0.1260    -1.2020 ns         1 BLR      -0.403100
     24 C1C         -5.2180     0.2930    -2.1240 c          1 BLR       0.549200
     25 C2C         -5.5790    -0.9490    -2.8220 cc         1 BLR      -0.180400
     26 C3C         -4.8930    -2.0250    -2.2750 cd         1 BLR      -0.022000
     27 C4C         -4.0700    -1.4750    -1.2230 cd         1 BLR      -0.011400
     28 CAC         -4.9770    -3.4230    -2.7080 cf         1 BLR      -0.149000
     29 CBC         -6.1400    -4.0520    -2.9900 c2         1 BLR      -0.322000
     30 ND          -1.8400    -0.5760     0.9500 na         1 BLR      -0.093000
     31 C1D         -2.2570    -1.8640     0.6240 cc         1 BLR      -0.185800
     32 C2D         -1.5820    -2.6990     1.4810 cd         1 BLR      -0.108300
     33 C3D         -0.7550    -1.9160     2.3340 cd         1 BLR      -0.146300
     34 C4D         -0.9300    -0.5940     2.0020 cc         1 BLR      -0.112300
     35 CGD          2.4080    -1.9160     2.3820 c          1 BLR       0.718000
     36 O1D          3.1230    -1.3500     3.1940 o          1 BLR      -0.723000
     37 O2D          2.3630    -1.6130     1.1990 o          1 BLR      -0.723000
     38 H1           0.4490     0.4070     3.3190 hc         1 BLR       0.068700
     39 H2          -1.0450     1.2650     3.0490 hc         1 BLR       0.068700
     40 H3           1.7990    -0.0080     0.8040 hn         1 BLR       0.417000
     41 H4           0.8290     5.1440    -0.2200 hc         1 BLR       0.024033
     42 H5           2.2830     4.5420    -1.0060 hc         1 BLR       0.024033
     43 H6           0.6970     4.2410    -1.7380 hc         1 BLR       0.024033
     44 H7          -1.1870     4.3650     0.7370 hc         1 BLR       0.031200
     45 H8          -1.7430     3.1560     1.8640 hc         1 BLR       0.031200
     46 H9          -0.0670     3.8480     3.5140 hc         1 BLR       0.020200
     47 H10          0.5300     5.1190     2.3290 hc         1 BLR       0.020200
     48 H12          3.1110     2.5170    -1.8550 ha         1 BLR       0.167000
     49 H13          3.3100    -0.9870    -0.1550 hn         1 BLR       0.416500
     50 H14          5.9380     1.5350    -4.1490 hc         1 BLR       0.037700
     51 H15          4.2200     1.9640    -4.1490 hc         1 BLR       0.037700
     52 H16          5.3160     2.6650    -2.9430 hc         1 BLR       0.037700
     53 H17          6.3470    -0.8560    -4.4780 ha         1 BLR       0.141000
     54 H18          7.7280    -2.0240    -1.9640 ha         1 BLR       0.163500
     55 H19          8.3400    -2.0840    -3.7150 ha         1 BLR       0.163500
     56 H20         -3.9310     0.5370    -0.5460 hn         1 BLR       0.344500
     57 H21         -6.5070     0.0540    -4.5020 hc         1 BLR       0.042033
     58 H22         -6.3550    -1.6960    -4.6960 hc         1 BLR       0.042033
     59 H23         -7.5870    -1.0310    -3.6060 hc         1 BLR       0.042033
     60 H24         -4.0380    -3.9830    -2.7310 ha         1 BLR       0.179000
     61 H25         -6.1550    -5.1040    -3.2760 ha         1 BLR       0.158000
     62 H26         -7.0980    -3.5330    -2.9310 ha         1 BLR       0.158000
     63 H27         -3.2600    -3.2800    -0.6220 ha         1 BLR       0.182000
     64 H28         -2.1170     0.2680     0.4640 hn         1 BLR       0.366000
     65 H29         -1.3170    -4.6380     0.5680 hc         1 BLR       0.028033
     66 H30         -1.1510    -4.6650     2.3260 hc         1 BLR       0.028033
     67 H31         -2.7520    -4.5120     1.5990 hc         1 BLR       0.028033
     68 H32          0.3660    -1.6930     4.1720 hc         1 BLR       0.041200
     69 H33         -0.3730    -3.2510     3.9680 hc         1 BLR       0.041200
     70 H34          1.9490    -3.5280     3.7530 hc         1 BLR       0.034700
     71 H35          1.2360    -3.7250     2.0740 hc         1 BLR       0.034700
     72 CMD         -1.7040    -4.2070     1.4990 c3         1 BLR      -0.010800
     73 CHD         -3.2180    -2.2090    -0.4250 ce         1 BLR      -0.106200
     74 CMC         -6.5600    -0.9030    -3.9680 c3         1 BLR      -0.026900
     75 CAD          0.1530    -2.4610     3.4190 c3         1 BLR       0.005900
     76 OC          -5.6080     1.4380    -2.2970 o          1 BLR      -0.520000
     77 CBD          1.4890    -3.0360     2.8880 c3         1 BLR      -0.198400
@<TRIPOS>BOND
     1     1     3 1   
     2     1    34 1   
     3     1    38 1   
     4     1    39 1   
     5     2     3 1   
     6     2     6 1   
     7     2    40 1   
     8     3     4 2   
     9     4     5 1   
    10     4     8 1   
    11     5     6 2   
    12     5     7 1   
    13     6    13 1   
    14     7    41 1   
    15     7    42 1   
    16     7    43 1   
    17     8     9 1   
    18     8    44 1   
    19     8    45 1   
    20     9    10 1   
    21     9    46 1   
    22     9    47 1   
    23    10    11 1   
    24    10    12 1   
    25    13    15 2   
    26    13    48 1   
    27    14    15 1   
    28    14    18 1   
    29    14    49 1   
    30    15    16 1   
    31    16    17 2   
    32    16    19 1   
    33    17    18 1   
    34    17    21 1   
    35    18    20 2   
    36    19    50 1   
    37    19    51 1   
    38    19    52 1   
    39    21    22 2   
    40    21    53 1   
    41    22    54 1   
    42    22    55 1   
    43    23    24 1   
    44    23    27 1   
    45    23    56 1   
    46    24    25 1   
    47    24    76 2   
    48    25    26 2   
    49    25    74 1   
    50    26    27 1   
    51    26    28 1   
    52    27    73 2   
    53    28    29 2   
    54    28    60 1   
    55    29    61 1   
    56    29    62 1   
    57    30    31 1   
    58    30    34 1   
    59    30    64 1   
    60    31    32 2   
    61    31    73 1   
    62    32    33 1   
    63    32    72 1   
    64    33    34 2   
    65    33    75 1   
    66    35    36 1   
    67    35    37 1   
    68    35    77 1   
    69    57    74 1   
    70    58    74 1   
    71    59    74 1   
    72    63    73 1   
    73    65    72 1   
    74    66    72 1   
    75    67    72 1   
    76    68    75 1   
    77    69    75 1   
    78    70    77 1   
    79    71    77 1   
    80    75    77 1   
@<TRIPOS>SUBSTRUCTURE
     1 BLR         1 TEMP              0 ****  ****    0 ROOT
