@<TRIPOS>MOLECULE
BLR
   77    80     1     0     0
SMALL
bcc


@<TRIPOS>ATOM
      1 CHA         -0.2060     0.3470     1.7510 c3         1 BLR       0.054200
      2 NA           1.9090     0.5880     0.4340 na         1 BLR      -0.128100
      3 C1A          0.6350     0.9760     0.6810 cc         1 BLR      -0.116600
      4 C2A          0.2990     1.9910    -0.1990 cd         1 BLR      -0.139300
      5 C3A          1.4260     2.2120    -1.0160 cd         1 BLR      -0.140300
      6 C4A          2.4250     1.3240    -0.6030 cc         1 BLR      -0.110100
      7 CMA          1.5110     3.2480    -2.0860 c3         1 BLR      -0.005800
      8 CAA         -0.9770     2.7740    -0.2290 c3         1 BLR       0.014900
      9 CBA         -0.9780     3.9350     0.7600 c3         1 BLR      -0.203400
     10 CGA         -2.2520     4.7980     0.7740 c          1 BLR       0.923600
     11 O1A         -2.2540     5.7500     1.5840 o          1 BLR      -0.853800
     12 O2A         -3.1740     4.4890    -0.0050 o          1 BLR      -0.853800
     13 CHB          3.7470     1.2740    -1.1420 ce         1 BLR      -0.063200
     14 NB           5.1720    -0.1720     0.2960 ns         1 BLR      -0.479100
     15 C1B          4.9020     0.6630    -0.7790 cd         1 BLR       0.001600
     16 C2B          6.1630     0.8660    -1.4730 cd         1 BLR      -0.044200
     17 C3B          7.1330     0.1750    -0.8140 cc         1 BLR      -0.189200
     18 C4B          6.4900    -0.5200     0.3240 c          1 BLR       0.697700
     19 CMB          6.3050     1.7180    -2.6850 c3         1 BLR      -0.041900
     20 OB           7.0030    -1.2650     1.1490 o          1 BLR      -0.635500
     21 CAB          8.5410     0.1160    -1.1490 ce         1 BLR      -0.088000
     22 CBB          9.5110    -0.5100    -0.4770 c2         1 BLR      -0.227000
     23 NC          -5.2580    -0.0360     0.4360 ns         1 BLR      -0.470100
     24 C1C         -6.5100     0.4970     0.2480 c          1 BLR       0.691700
     25 C2C         -7.2000    -0.3930    -0.6990 cc         1 BLR      -0.180400
     26 C3C         -6.3770    -1.4370    -0.9680 cd         1 BLR      -0.022000
     27 C4C         -5.1240    -1.2390    -0.2480 cd         1 BLR      -0.011400
     28 CAC         -6.6060    -2.5700    -1.8550 cf         1 BLR      -0.099000
     29 CBC         -7.7870    -3.1490    -2.0640 c2         1 BLR      -0.222000
     30 ND          -2.2710    -0.6560     0.7500 na         1 BLR      -0.144100
     31 C1D         -2.7710    -1.8720     0.3480 cc         1 BLR      -0.135100
     32 C2D         -1.8130    -2.8290     0.6610 cd         1 BLR      -0.108300
     33 C3D         -0.7230    -2.1550     1.2590 cd         1 BLR      -0.146300
     34 C4D         -1.0300    -0.8100     1.2810 cc         1 BLR      -0.061600
     35 CGD          3.0220    -2.7110     0.9950 c          1 BLR       0.928600
     36 O1D          3.8960    -3.5430     0.7530 o          1 BLR      -0.828300
     37 O2D          3.2220    -1.5760     1.5440 o          1 BLR      -0.828300
     38 H1           0.4330     0.0060     2.5680 hc         1 BLR       0.068700
     39 H2          -0.8540     1.1100     2.1870 hc         1 BLR       0.068700
     40 H3           2.3650    -0.2150     0.8980 hn         1 BLR       0.366700
     41 H4           0.6190     3.2350    -2.7150 hc         1 BLR       0.024033
     42 H5           1.5870     4.2550    -1.6680 hc         1 BLR       0.024033
     43 H6           2.3660     3.1100    -2.7460 hc         1 BLR       0.024033
     44 H7          -1.1470     3.1530    -1.2390 hc         1 BLR       0.031200
     45 H8          -1.8350     2.1280    -0.0250 hc         1 BLR       0.031200
     46 H9          -0.8110     3.5520     1.7730 hc         1 BLR       0.020200
     47 H10         -0.1180     4.5850     0.5620 hc         1 BLR       0.020200
     48 H12          3.8530     1.9030    -2.0170 ha         1 BLR       0.117000
     49 H13          4.4750    -0.6830     0.8650 hn         1 BLR       0.416500
     50 H14          7.3320     1.7490    -3.0420 hc         1 BLR       0.037700
     51 H15          5.6860     1.3480    -3.5040 hc         1 BLR       0.037700
     52 H16          5.9980     2.7470    -2.4870 hc         1 BLR       0.037700
     53 H17          8.8240     0.6490    -2.0510 ha         1 BLR       0.091000
     54 H18          9.3310    -1.0650     0.4320 ha         1 BLR       0.113500
     55 H19         10.5300    -0.4730    -0.8370 ha         1 BLR       0.113500
     56 H20         -4.6920     0.2330     1.2260 hn         1 BLR       0.344500
     57 H21         -8.7220     0.9940    -1.2460 hc         1 BLR       0.042033
     58 H22         -8.7160    -0.4890    -2.2080 hc         1 BLR       0.042033
     59 H23         -9.3380    -0.5010    -0.5650 hc         1 BLR       0.042033
     60 H24         -5.7370    -2.9670    -2.3700 ha         1 BLR       0.129000
     61 H25         -7.8780    -3.9860    -2.7430 ha         1 BLR       0.108000
     62 H26         -8.6900    -2.8350    -1.5570 ha         1 BLR       0.108000
     63 H27         -4.1820    -3.0040    -0.7740 ha         1 BLR       0.132000
     64 H28         -2.6680     0.2370     0.5090 hn         1 BLR       0.315700
     65 H29         -1.0830    -4.6740    -0.1530 hc         1 BLR       0.028033
     66 H30         -1.8790    -4.8460     1.4000 hc         1 BLR       0.028033
     67 H31         -2.8350    -4.5900    -0.0470 hc         1 BLR       0.028033
     68 H32          1.0030    -2.0860     2.4720 hc         1 BLR       0.041200
     69 H33          0.3720    -3.6960     2.2470 hc         1 BLR       0.041200
     70 H34          1.4710    -3.9940     0.1890 hc         1 BLR       0.034700
     71 H35          1.3430    -2.2980    -0.2280 hc         1 BLR       0.034700
     72 CMD         -1.9110    -4.3020     0.4530 c3         1 BLR      -0.010800
     73 CHD         -4.0550    -2.0630    -0.2530 ce         1 BLR      -0.056200
     74 CMC         -8.5600    -0.0830    -1.2080 c3         1 BLR      -0.026900
     75 CAD          0.5610    -2.7520     1.7300 c3         1 BLR       0.005900
     76 OC          -6.9360     1.5090     0.7780 o          1 BLR      -0.595500
     77 CBD          1.5730    -2.9860     0.5930 c3         1 BLR      -0.198400
@<TRIPOS>BOND
     1     1     3 1   
     2     1    34 1   
     3     1    38 1   
     4     1    39 1   
     5     2     3 1   
     6     2     6 1   
     7     2    40 1   
     8     3     4 2   
     9     4     5 1   
    10     4     8 1   
    11     5     6 2   
    12     5     7 1   
    13     6    13 1   
    14     7    41 1   
    15     7    42 1   
    16     7    43 1   
    17     8     9 1   
    18     8    44 1   
    19     8    45 1   
    20     9    10 1   
    21     9    46 1   
    22     9    47 1   
    23    10    11 1   
    24    10    12 1   
    25    13    15 2   
    26    13    48 1   
    27    14    15 1   
    28    14    18 1   
    29    14    49 1   
    30    15    16 1   
    31    16    17 2   
    32    16    19 1   
    33    17    18 1   
    34    17    21 1   
    35    18    20 2   
    36    19    50 1   
    37    19    51 1   
    38    19    52 1   
    39    21    22 2   
    40    21    53 1   
    41    22    54 1   
    42    22    55 1   
    43    23    24 1   
    44    23    27 1   
    45    23    56 1   
    46    24    25 1   
    47    24    76 2   
    48    25    26 2   
    49    25    74 1   
    50    26    27 1   
    51    26    28 1   
    52    27    73 2   
    53    28    29 2   
    54    28    60 1   
    55    29    61 1   
    56    29    62 1   
    57    30    31 1   
    58    30    34 1   
    59    30    64 1   
    60    31    32 2   
    61    31    73 1   
    62    32    33 1   
    63    32    72 1   
    64    33    34 2   
    65    33    75 1   
    66    35    36 1   
    67    35    37 1   
    68    35    77 1   
    69    57    74 1   
    70    58    74 1   
    71    59    74 1   
    72    63    73 1   
    73    65    72 1   
    74    66    72 1   
    75    67    72 1   
    76    68    75 1   
    77    69    75 1   
    78    70    77 1   
    79    71    77 1   
    80    75    77 1   
@<TRIPOS>SUBSTRUCTURE
     1 BLR         1 TEMP              0 ****  ****    0 ROOT
