@<TRIPOS>MOLECULE
BLS
   55    56     1     0     0
SMALL
No Charge or Current Charge


@<TRIPOS>ATOM
      1 O4           0.0110    -2.8280     0.0360 o          1 BLS      -0.704500
      2 N1           5.0270     0.0220     0.4320 n          1 BLS      -0.298000
      3 C2           5.3480     0.5920    -0.8220 c          1 BLS       0.716400
      4 O2           4.5080     1.0430    -1.5830 o          1 BLS      -0.508000
      5 N3           6.6680     0.6470    -1.1970 nc         1 BLS      -0.781100
      6 C4           7.5840     0.1830    -0.4200 cd         1 BLS       0.781500
      7 N4           8.8150     0.2940    -0.8730 nv         1 BLS      -1.050200
      8 C5           7.3450    -0.3900     0.8400 cd         1 BLS      -0.513600
      9 C6           6.0370    -0.4650     1.2560 cc         1 BLS       0.042600
     10 C1           3.6220    -0.0560     0.8720 c6         1 BLS       0.372900
     11 C12          2.9400     1.3020     0.9730 c2         1 BLS      -0.290200
     12 C3           1.6790     1.5150     0.5540 c2         1 BLS      -0.156200
     13 C15          0.8360     0.4140    -0.0810 c6         1 BLS       0.108900
     14 C16          1.4720    -0.9780     0.1960 c6         1 BLS       0.022300
     15 O5           2.9110    -0.9190    -0.0390 os         1 BLS      -0.405000
     16 O3           1.3160    -2.5420    -1.6060 o          1 BLS      -0.704500
     17 C17          0.7360    -2.0930    -0.6240 c          1 BLS       0.731000
     18 N6          -0.5450     0.4870     0.4240 ns         1 BLS      -0.478900
     19 C7          -1.4580     1.4740     0.1330 c          1 BLS       0.584100
     20 O7          -1.2010     2.4000    -0.6220 o          1 BLS      -0.647100
     21 C8          -2.8030     1.3520     0.8510 c3         1 BLS      -0.197400
     22 C9          -3.9560     1.0480    -0.1260 c3         1 BLS       0.177500
     23 N9          -3.8830    -0.3500    -0.5810 n8         1 BLS      -1.034200
     24 C10         -5.3420     1.2900     0.5070 c3         1 BLS      -0.110400
     25 C11         -6.5050     1.1950    -0.5110 c3         1 BLS       0.216800
     26 N12         -7.6780     0.4390    -0.0060 nh         1 BLS      -0.755600
     27 C13         -8.8020     1.2610     0.5030 c3         1 BLS       0.221100
     28 C14         -7.7200    -0.9230     0.0550 c2         1 BLS       0.810100
     29 N14         -8.7340    -1.5420     0.4460 n2         1 BLS      -0.931100
     30 N15         -6.6510    -1.5790    -0.3580 nv         1 BLS      -1.086200
     31 HN41         9.5360     0.3260    -0.1650 hn         1 BLS       0.491500
     32 HN42         8.9120     0.9500    -1.6360 hn         1 BLS       0.491500
     33 H5           8.1570    -0.7620     1.4520 ha         1 BLS       0.189000
     34 H6           5.6830    -0.8820     2.1960 h4         1 BLS       0.194000
     35 H1           3.6020    -0.5200     1.8690 h2         1 BLS       0.019700
     36 H2           3.5290     2.1040     1.4160 ha         1 BLS       0.167000
     37 H3           1.2220     2.5020     0.6370 ha         1 BLS       0.185000
     38 H4           0.8140     0.5740    -1.1700 h1         1 BLS       0.093700
     39 H7           1.3250    -1.2200     1.2600 h1         1 BLS       0.022700
     40 HN6         -0.8510    -0.2240     1.0770 hn         1 BLS       0.365500
     41 H81         -3.0040     2.3200     1.3230 hc         1 BLS       0.063200
     42 H82         -2.7640     0.5810     1.6300 hc         1 BLS       0.063200
     43 H9          -3.8720     1.7140    -1.0000 h1         1 BLS       0.071700
     44 HN91        -3.1490    -0.4360    -1.2950 hn         1 BLS       0.415500
     45 HN92        -3.5300    -0.9360     0.1850 hn         1 BLS       0.415500
     46 H101        -5.3710     2.2840     0.9680 hc         1 BLS       0.045200
     47 H102        -5.4910     0.5720     1.3230 hc         1 BLS       0.045200
     48 H111        -6.1560     0.7430    -1.4500 h1         1 BLS       0.058200
     49 H112        -6.7950     2.2210    -0.7800 h1         1 BLS       0.058200
     50 H131        -8.5980     2.3350     0.4040 h1         1 BLS       0.033033
     51 H132        -9.7220     1.0390    -0.0540 h1         1 BLS       0.033033
     52 H133        -8.9790     1.0490     1.5660 h1         1 BLS       0.033033
     53 HN14        -8.5320    -2.5400     0.3340 hn         1 BLS       0.367400
     54 H151        -6.4570    -2.3920     0.2060 hn         1 BLS       0.472500
     55 H152        -5.8450    -0.9630    -0.4590 hn         1 BLS       0.472500
@<TRIPOS>BOND
     1     1    17 1   
     2     2     3 1   
     3     2     9 1   
     4     2    10 1   
     5     3     4 2   
     6     3     5 1   
     7     5     6 2   
     8     6     7 1   
     9     6     8 1   
    10     7    31 1   
    11     7    32 1   
    12     8     9 2   
    13     8    33 1   
    14     9    34 1   
    15    10    11 1   
    16    10    15 1   
    17    10    35 1   
    18    11    12 2   
    19    11    36 1   
    20    12    13 1   
    21    12    37 1   
    22    13    14 1   
    23    13    18 1   
    24    13    38 1   
    25    14    15 1   
    26    14    17 1   
    27    14    39 1   
    28    16    17 1   
    29    18    19 1   
    30    18    40 1   
    31    19    20 2   
    32    19    21 1   
    33    21    22 1   
    34    21    41 1   
    35    21    42 1   
    36    22    23 1   
    37    22    24 1   
    38    22    43 1   
    39    23    44 1   
    40    23    45 1   
    41    24    25 1   
    42    24    46 1   
    43    24    47 1   
    44    25    26 1   
    45    25    48 1   
    46    25    49 1   
    47    26    27 1   
    48    26    28 1   
    49    27    50 1   
    50    27    51 1   
    51    27    52 1   
    52    28    29 2   
    53    28    30 1   
    54    29    53 1   
    55    30    54 1   
    56    30    55 1   
@<TRIPOS>SUBSTRUCTURE
     1 BLS         1 TEMP              0 ****  ****    0 ROOT
