@<TRIPOS>MOLECULE
BLS
   55    56     1     0     0
SMALL
bcc


@<TRIPOS>ATOM
      1 O4          -0.1360    -2.2430     1.8130 o          1 BLS      -0.809800
      2 N1           4.9430     0.2360     0.4010 n          1 BLS      -0.365000
      3 C2           4.9700     0.2750    -1.0070 c          1 BLS       0.858900
      4 O2           3.9240     0.4070    -1.6210 o          1 BLS      -0.583500
      5 N3           6.1690     0.1720    -1.6190 nc         1 BLS      -0.781100
      6 C4           7.2790     0.0080    -0.9280 cd         1 BLS       0.781500
      7 N4           8.4300    -0.0830    -1.5930 nv         1 BLS      -0.939800
      8 C5           7.2820    -0.0740     0.4990 cd         1 BLS      -0.463600
      9 C6           6.0860     0.0450     1.1050 cc         1 BLS       0.092600
     10 C1           3.6790     0.3400     1.1090 c6         1 BLS       0.349700
     11 C12          2.9150     1.5820     0.7670 c2         1 BLS      -0.240200
     12 C3           1.6190     1.5500     0.4980 c2         1 BLS      -0.106200
     13 C15          0.8650     0.2480     0.4550 c6         1 BLS       0.108900
     14 C16          1.6280    -0.7750     1.3160 c6         1 BLS      -0.000900
     15 O5           2.9630    -0.8330     0.8740 os         1 BLS      -0.358600
     16 O3           1.6300    -3.1000     0.7490 o          1 BLS      -0.809800
     17 C17          0.9970    -2.1810     1.2800 c          1 BLS       0.941600
     18 N6          -0.4880     0.3800     0.9620 ns         1 BLS      -0.545900
     19 C7          -1.4380     1.0900     0.3360 c          1 BLS       0.651100
     20 O7          -1.2160     1.7800    -0.6530 o          1 BLS      -0.647100
     21 C8          -2.8140     1.0180     0.9660 c3         1 BLS      -0.197400
     22 C9          -3.9400     1.0530    -0.0670 c3         1 BLS       0.177500
     23 N9          -3.8880    -0.0390    -1.0350 n8         1 BLS      -0.923800
     24 C10         -5.3060     1.0360     0.6120 c3         1 BLS      -0.110400
     25 C11         -6.4360     1.4200    -0.3610 c3         1 BLS       0.216800
     26 N12         -7.6300     0.6080    -0.2730 nh         1 BLS      -0.755600
     27 C13         -8.5110     0.8810     0.8380 c3         1 BLS       0.221100
     28 C14         -7.6800    -0.6460    -0.8360 c2         1 BLS       0.810100
     29 N14         -8.6560    -1.4320    -0.5370 n2         1 BLS      -0.931100
     30 N15         -6.6980    -0.9280    -1.7600 nv         1 BLS      -0.975800
     31 HN41         9.3050    -0.2080    -1.1160 hn         1 BLS       0.436300
     32 HN42         8.4400    -0.0310    -2.5970 hn         1 BLS       0.436300
     33 H5           8.1870    -0.2210     1.0690 ha         1 BLS       0.139000
     34 H6           5.9870    -0.0000     2.1800 h4         1 BLS       0.144000
     35 H1           3.9490     0.4090     2.1750 h2         1 BLS       0.019700
     36 H2           3.4610     2.5170     0.8250 ha         1 BLS       0.117000
     37 H3           1.0840     2.4660     0.2880 ha         1 BLS       0.135000
     38 H4           0.8380    -0.1150    -0.5820 h1         1 BLS       0.093700
     39 H7           1.5880    -0.4210     2.3600 h1         1 BLS       0.022700
     40 HN6         -0.7660    -0.3590     1.6000 hn         1 BLS       0.365500
     41 H81         -2.9100     1.8780     1.6370 hc         1 BLS       0.063200
     42 H82         -2.9120     0.1290     1.5970 hc         1 BLS       0.063200
     43 H9          -3.8540     1.9850    -0.6340 h1         1 BLS       0.071700
     44 HN91        -3.1100     0.0810    -1.6710 hn         1 BLS       0.360300
     45 HN92        -3.7350    -0.9190    -0.5540 hn         1 BLS       0.360300
     46 H101        -5.3030     1.7140     1.4690 hc         1 BLS       0.045200
     47 H102        -5.4870     0.0350     1.0200 hc         1 BLS       0.045200
     48 H111        -6.0670     1.4030    -1.3880 h1         1 BLS       0.058200
     49 H112        -6.7330     2.4540    -0.1810 h1         1 BLS       0.058200
     50 H131        -8.5220     1.9550     1.0230 h1         1 BLS       0.033033
     51 H132        -9.5250     0.5620     0.6110 h1         1 BLS       0.033033
     52 H133        -8.2020     0.3820     1.7630 h1         1 BLS       0.033033
     53 HN14        -8.5730    -2.3010    -1.0520 hn         1 BLS       0.367400
     54 H151        -6.6870    -1.8910    -2.0540 hn         1 BLS       0.417300
     55 H152        -5.7520    -0.5700    -1.6110 hn         1 BLS       0.417300
@<TRIPOS>BOND
     1     1    17 1   
     2     2     3 1   
     3     2     9 1   
     4     2    10 1   
     5     3     4 2   
     6     3     5 1   
     7     5     6 2   
     8     6     7 1   
     9     6     8 1   
    10     7    31 1   
    11     7    32 1   
    12     8     9 2   
    13     8    33 1   
    14     9    34 1   
    15    10    11 1   
    16    10    15 1   
    17    10    35 1   
    18    11    12 2   
    19    11    36 1   
    20    12    13 1   
    21    12    37 1   
    22    13    14 1   
    23    13    18 1   
    24    13    38 1   
    25    14    15 1   
    26    14    17 1   
    27    14    39 1   
    28    16    17 1   
    29    18    19 1   
    30    18    40 1   
    31    19    20 2   
    32    19    21 1   
    33    21    22 1   
    34    21    41 1   
    35    21    42 1   
    36    22    23 1   
    37    22    24 1   
    38    22    43 1   
    39    23    44 1   
    40    23    45 1   
    41    24    25 1   
    42    24    46 1   
    43    24    47 1   
    44    25    26 1   
    45    25    48 1   
    46    25    49 1   
    47    26    27 1   
    48    26    28 1   
    49    27    50 1   
    50    27    51 1   
    51    27    52 1   
    52    28    29 2   
    53    28    30 1   
    54    29    53 1   
    55    30    54 1   
    56    30    55 1   
@<TRIPOS>SUBSTRUCTURE
     1 BLS         1 TEMP              0 ****  ****    0 ROOT
