@<TRIPOS>MOLECULE
BLT
   38    36     1     0     0
SMALL
bcc


@<TRIPOS>ATOM
      1 C1          31.7230    66.7350     6.7810 c3         1 BLT       0.042000
      2 O1          31.6830    67.9540     6.0560 oh         1 BLT      -0.284000
      3 C2          33.1150    66.5380     7.3570 c3         1 BLT      -0.050000
      4 O2          34.0670    66.7760     6.2930 oh         1 BLT      -0.219000
      5 C3          33.1430    65.2010     7.9970 c2         1 BLT       0.157000
      6 SE4         31.0510    65.4230     9.3060 s          1 BLT      -0.191000
      7 C5          30.6480    66.7420     7.8740 c3         1 BLT      -0.220000
      8 C6          29.2470    66.5510     7.2500 c3         1 BLT      -0.025000
      9 O6          28.2730    67.4830     7.6660 oh         1 BLT      -0.290000
     10 C7          29.2490    65.9770    10.2450 c2         1 BLT       0.056000
     11 C8          29.2560    65.5370    11.6880 c3         1 BLT      -0.011000
     12 O8          29.4370    64.1330    11.7310 oh         1 BLT      -0.338000
     13 C9          27.9440    65.9170    12.4050 c3         1 BLT       0.089000
     14 C10         27.7820    65.3050    13.7830 c3         1 BLT      -0.028000
     15 O10         28.9440    65.5380    14.5490 oh         1 BLT      -0.330000
     16 O9          27.9260    67.3450    12.5050 os         1 BLT      -0.714000
     17 S9          26.5970    68.1500    11.9930 s6         1 BLT       2.655000
     18 O11         26.5030    67.9240    10.5460 o          1 BLT      -1.014000
     19 O12         26.9500    69.5170    12.3680 o          1 BLT      -1.014000
     20 O13         25.4680    67.5800    12.7370 o          1 BLT      -1.014000
     21 H1          31.5300    65.8860     6.1020 h1         1 BLT       0.086000
     22 HO1         30.8320    68.0250     5.6140 ho         1 BLT       0.232000
     23 H2          33.2720    67.3120     8.1290 h1         1 BLT       0.146000
     24 HO2         34.7690    66.1380     6.4520 ho         1 BLT       0.197000
     25 H31         33.9960    65.0500     8.6650 ha         1 BLT       0.155000
     26 H32         33.0970    64.3910     7.2600 ha         1 BLT       0.155000
     27 H5          30.6690    67.7350     8.3390 h1         1 BLT       0.158000
     28 H61         28.9070    65.5190     7.3980 h1         1 BLT       0.097500
     29 H62         29.3120    66.6810     6.1640 h1         1 BLT       0.097500
     30 HO6         28.0480    67.3170     8.5870 ho         1 BLT       0.237000
     31 H71         28.3750    65.5460     9.7390 ha         1 BLT       0.165500
     32 H72         29.1520    67.0640    10.2250 ha         1 BLT       0.165500
     33 H8          30.0830    66.0430    12.2060 h1         1 BLT       0.131000
     34 HO8         29.7020    63.8890    12.6230 ho         1 BLT       0.231000
     35 H9          27.1060    65.5540    11.7980 h1         1 BLT       0.102000
     36 H101        27.5840    64.2330    13.6630 h1         1 BLT       0.090000
     37 H102        26.8890    65.7360    14.2530 h1         1 BLT       0.090000
     38 H10         28.8310    65.1090    15.4010 ho         1 BLT       0.206000
@<TRIPOS>BOND
     1     1     2 1   
     2     1     3 1   
     3     1     7 1   
     4     1    21 1   
     5     2    22 1   
     6     3     4 1   
     7     3     5 1   
     8     3    23 1   
     9     4    24 1   
    10     5    25 1   
    11     5    26 1   
    12     6     7 1   
    13     7     8 1   
    14     7    27 1   
    15     8     9 1   
    16     8    28 1   
    17     8    29 1   
    18     9    30 1   
    19    10    11 1   
    20    10    31 1   
    21    10    32 1   
    22    11    12 1   
    23    11    13 1   
    24    11    33 1   
    25    12    34 1   
    26    13    14 1   
    27    13    16 1   
    28    13    35 1   
    29    14    15 1   
    30    14    36 1   
    31    14    37 1   
    32    15    38 1   
    33    16    17 1   
    34    17    18 1   
    35    17    19 1   
    36    17    20 1   
@<TRIPOS>SUBSTRUCTURE
     1 BLT         1 TEMP              0 ****  ****    0 ROOT
