@<TRIPOS>MOLECULE
BLT
   38    36     1     0     0
SMALL
No Charge or Current Charge


@<TRIPOS>ATOM
      1 C1          32.2680    65.8260     6.9810 c3         1 BLT       0.042000
      2 O1          31.9140    65.2950     5.7020 oh         1 BLT      -0.284000
      3 C2          33.6700    66.5000     6.8380 c3         1 BLT      -0.050000
      4 O2          34.6080    65.5400     6.3300 oh         1 BLT      -0.219000
      5 C3          34.2300    67.0680     8.1300 c2         1 BLT       0.157000
      6 SE4         31.3330    67.3160     9.2230 s          1 BLT      -0.191000
      7 C5          31.1200    66.7770     7.4670 c3         1 BLT      -0.220000
      8 C6          29.7000    66.1590     7.3250 c3         1 BLT      -0.025000
      9 O6          29.2510    66.2040     5.9680 oh         1 BLT      -0.290000
     10 C7          27.9610    67.6350    10.6330 c2         1 BLT       0.056000
     11 C8          28.2010    66.2660    11.2390 c3         1 BLT      -0.011000
     12 O8          27.9260    65.2640    10.2520 oh         1 BLT      -0.338000
     13 C9          27.3280    66.0250    12.5020 c3         1 BLT       0.089000
     14 C10         27.6000    64.6490    13.1850 c3         1 BLT      -0.028000
     15 O10         28.9740    64.5180    13.5770 oh         1 BLT      -0.330000
     16 O9          27.6450    67.0870    13.4380 os         1 BLT      -0.714000
     17 S9          26.4200    67.7730    14.3190 s6         1 BLT       2.655000
     18 O11         25.5800    68.4310    13.2910 o          1 BLT      -1.014000
     19 O12         27.1130    68.7110    15.2340 o          1 BLT      -1.014000
     20 O13         25.7600    66.6320    14.9930 o          1 BLT      -1.014000
     21 H1          32.3510    65.0000     7.7030 h1         1 BLT       0.086000
     22 HO1         30.9390    65.3040     5.6550 ho         1 BLT       0.232000
     23 H2          33.5690    67.3280     6.1210 h1         1 BLT       0.146000
     24 HO2         35.4310    66.0120     6.1070 ho         1 BLT       0.197000
     25 H31         34.2660    68.1470     8.2610 ha         1 BLT       0.155000
     26 H32         34.3750    66.4050     8.9810 ha         1 BLT       0.155000
     27 H5          31.1470    67.6700     6.8230 h1         1 BLT       0.158000
     28 H61         28.9970    66.7220     7.9550 h1         1 BLT       0.097500
     29 H62         29.7050    65.1250     7.7010 h1         1 BLT       0.097500
     30 HO6         29.0740    67.1370     5.7440 ho         1 BLT       0.237000
     31 H71         26.9730    67.8580    10.2380 ha         1 BLT       0.165500
     32 H72         28.6150    68.4510    10.9300 ha         1 BLT       0.165500
     33 H8          29.2580    66.2110    11.5390 h1         1 BLT       0.131000
     34 HO8         28.2380    64.4090    10.6030 ho         1 BLT       0.231000
     35 H9          26.2730    66.0560    12.1850 h1         1 BLT       0.102000
     36 H101        27.3290    63.8450    12.4890 h1         1 BLT       0.090000
     37 H102        26.9450    64.5370    14.0590 h1         1 BLT       0.090000
     38 H10         29.0720    63.6590    14.0300 ho         1 BLT       0.206000
@<TRIPOS>BOND
     1     1     2 1   
     2     1     3 1   
     3     1     7 1   
     4     1    21 1   
     5     2    22 1   
     6     3     4 1   
     7     3     5 1   
     8     3    23 1   
     9     4    24 1   
    10     5    25 1   
    11     5    26 1   
    12     6     7 1   
    13     7     8 1   
    14     7    27 1   
    15     8     9 1   
    16     8    28 1   
    17     8    29 1   
    18     9    30 1   
    19    10    11 1   
    20    10    31 1   
    21    10    32 1   
    22    11    12 1   
    23    11    13 1   
    24    11    33 1   
    25    12    34 1   
    26    13    14 1   
    27    13    16 1   
    28    13    35 1   
    29    14    15 1   
    30    14    36 1   
    31    14    37 1   
    32    15    38 1   
    33    16    17 1   
    34    17    18 1   
    35    17    19 1   
    36    17    20 1   
@<TRIPOS>SUBSTRUCTURE
     1 BLT         1 TEMP              0 ****  ****    0 ROOT
