@<TRIPOS>MOLECULE
BLV
   75    78     1     0     0
SMALL
No Charge or Current Charge


@<TRIPOS>ATOM
      1 NA           1.6090     0.3740    -0.6150 ns         1 BLV      -0.440100
      2 C1A          1.4310     0.8450    -1.8750 c          1 BLV       0.547200
      3 C2A          2.8000     0.8520    -2.4200 cc         1 BLV      -0.068400
      4 C3A          3.6940     0.3850    -1.4680 cd         1 BLV      -0.141200
      5 C4A          2.9070     0.0820    -0.2980 cd         1 BLV       0.144600
      6 CMA          5.1900     0.2330    -1.6140 c3         1 BLV      -0.024900
      7 OA           0.3740     1.1770    -2.3880 o          1 BLV      -0.479000
      8 CAA          3.0510     1.3360    -3.8290 c3         1 BLV      -0.021200
      9 CBA          3.0420     0.1890    -4.8650 c3         1 BLV      -0.199400
     10 CGA          3.3560     0.7430    -6.2630 c          1 BLV       0.732000
     11 O1A          2.4270     1.1450    -6.9460 o          1 BLV      -0.734500
     12 O2A          4.5270     0.8110    -6.6050 o          1 BLV      -0.734500
     13 CHB          3.4140    -0.3720     0.8970 ce         1 BLV      -0.293200
     14 NB           1.5900    -0.1180     2.6270 na         1 BLV      -0.090000
     15 C1B          2.8490    -0.5480     2.2320 cc         1 BLV      -0.034800
     16 C2B          3.4080    -1.1180     3.3490 cd         1 BLV      -0.168300
     17 C3B          2.4810    -1.0390     4.4230 cd         1 BLV      -0.101800
     18 C4B          1.3470    -0.4120     3.9670 cc         1 BLV      -0.153800
     19 CMB          4.7830    -1.7370     3.4350 c3         1 BLV      -0.004800
     20 CAB          2.7050    -1.5230     5.7890 cf         1 BLV      -0.107200
     21 CBB          1.7690    -2.1710     6.5190 c2         1 BLV      -0.354000
     22 CHC          0.1100    -0.0630     4.6630 ce         1 BLV      -0.122200
     23 NC          -1.5760     0.0580     2.9040 na         1 BLV      -0.676000
     24 C1C         -1.1350     0.2730     4.1820 cd         1 BLV       0.073000
     25 C2C         -2.1800     0.9660     4.8830 cd         1 BLV      -0.049200
     26 C3C         -3.2230     1.1320     3.9780 cc         1 BLV      -0.099000
     27 C4C         -2.8160     0.5670     2.7200 cc         1 BLV       0.215000
     28 CMC         -2.1130     1.4590     6.3110 c3         1 BLV      -0.038900
     29 CAC         -4.5170     1.7870     4.1900 ce         1 BLV      -0.132000
     30 CBC         -5.2330     1.7750     5.3350 c2         1 BLV      -0.334000
     31 CHD         -3.4630     0.4710     1.5300 cf         1 BLV      -0.418600
     32 ND          -1.8450    -0.7290     0.1860 nc         1 BLV      -0.819100
     33 C1D         -3.0350    -0.1600     0.2880 cd         1 BLV       0.619900
     34 C2D         -3.7740    -0.2890    -0.9310 cd         1 BLV      -0.290800
     35 C3D         -2.9390    -0.9900    -1.7670 cc         1 BLV      -0.076400
     36 C4D         -1.6830    -1.2840    -1.0570 c          1 BLV       0.670700
     37 CMD         -5.1660     0.2240    -1.2110 c3         1 BLV      -0.013900
     38 OD          -0.7010    -1.8950    -1.4430 o          1 BLV      -0.481100
     39 CAD         -3.1540    -1.4670    -3.1840 c3         1 BLV      -0.023200
     40 CBD         -2.6460    -0.4600    -4.2410 c3         1 BLV      -0.200400
     41 CGD         -2.9490    -0.9870    -5.6530 c          1 BLV       0.727000
     42 O1D         -2.1260    -1.7170    -6.1840 o          1 BLV      -0.725500
     43 O2D         -4.0270    -0.7040    -6.1530 o          1 BLV      -0.725500
     44 HA           0.8050     0.1880    -0.0340 hn         1 BLV       0.319500
     45 HMA1         5.7200     0.9110    -0.9350 hc         1 BLV       0.041700
     46 HMA2         5.5040    -0.7920    -1.3810 hc         1 BLV       0.041700
     47 HMA3         5.5260     0.4530    -2.6330 hc         1 BLV       0.041700
     48 HAA1         2.2960     2.0820    -4.1090 hc         1 BLV       0.066200
     49 HAA2         4.0150     1.8570    -3.8710 hc         1 BLV       0.066200
     50 HBA1         3.8230    -0.5120    -4.5470 hc         1 BLV       0.031700
     51 HBA2         2.0300    -0.2330    -4.8370 hc         1 BLV       0.031700
     52 HHB          4.4840    -0.5710     0.8650 ha         1 BLV       0.197000
     53 HMB1         5.0430    -2.2590     2.5070 hc         1 BLV       0.028700
     54 HMB2         5.5460    -0.9710     3.6170 hc         1 BLV       0.028700
     55 HMB3         4.8460    -2.4730     4.2460 hc         1 BLV       0.028700
     56 HAB          3.7170    -1.4090     6.1840 ha         1 BLV       0.161000
     57 HBB1         1.9980    -2.5470     7.5170 ha         1 BLV       0.156000
     58 HBB2         0.7670    -2.3490     6.1300 ha         1 BLV       0.156000
     59 HHC          0.2480     0.1040     5.7290 ha         1 BLV       0.188000
     60 HMC1        -2.7360     2.3480     6.4570 hc         1 BLV       0.043700
     61 HMC2        -2.4530     0.6850     7.0090 hc         1 BLV       0.043700
     62 HMC3        -1.0930     1.7430     6.5920 hc         1 BLV       0.043700
     63 HAC         -4.9280     2.2820     3.3070 ha         1 BLV       0.181000
     64 HBC1        -6.2020     2.2710     5.4030 ha         1 BLV       0.156500
     65 HBC2        -4.8890     1.2580     6.2310 ha         1 BLV       0.156500
     66 HHD         -4.4620     0.8930     1.5080 ha         1 BLV       0.193000
     67 HMD1        -5.9210    -0.4140    -0.7360 hc         1 BLV       0.034700
     68 HMD2        -5.2960     1.2430    -0.8260 hc         1 BLV       0.034700
     69 HMD3        -5.3770     0.2510    -2.2860 hc         1 BLV       0.034700
     70 HAD1        -2.6510    -2.4310    -3.3320 hc         1 BLV       0.067200
     71 HAD2        -4.2220    -1.6560    -3.3470 hc         1 BLV       0.067200
     72 HBD1        -3.1910     0.4740    -4.0540 hc         1 BLV       0.025200
     73 HBD2        -1.5640    -0.3800    -4.0840 hc         1 BLV       0.025200
     74 HB           0.9670     0.4240     2.0450 hn         1 BLV       0.375000
     75 HC          -1.1130    -0.4820     2.1710 hn         1 BLV       0.583000
@<TRIPOS>BOND
     1     1     2 1   
     2     1     5 1   
     3     1    44 1   
     4     2     3 1   
     5     2     7 2   
     6     3     4 2   
     7     3     8 1   
     8     4     5 1   
     9     4     6 1   
    10     5    13 2   
    11     6    45 1   
    12     6    46 1   
    13     6    47 1   
    14     8     9 1   
    15     8    48 1   
    16     8    49 1   
    17     9    10 1   
    18     9    50 1   
    19     9    51 1   
    20    10    11 1   
    21    10    12 1   
    22    13    15 1   
    23    13    52 1   
    24    14    15 1   
    25    14    18 1   
    26    14    74 1   
    27    15    16 2   
    28    16    17 1   
    29    16    19 1   
    30    17    18 2   
    31    17    20 1   
    32    18    22 1   
    33    19    53 1   
    34    19    54 1   
    35    19    55 1   
    36    20    21 2   
    37    20    56 1   
    38    21    57 1   
    39    21    58 1   
    40    22    24 2   
    41    22    59 1   
    42    23    24 1   
    43    23    27 1   
    44    23    75 1   
    45    24    25 1   
    46    25    26 2   
    47    25    28 1   
    48    26    27 1   
    49    26    29 1   
    50    27    31 2   
    51    28    60 1   
    52    28    61 1   
    53    28    62 1   
    54    29    30 2   
    55    29    63 1   
    56    30    64 1   
    57    30    65 1   
    58    31    33 1   
    59    31    66 1   
    60    32    33 2   
    61    32    36 1   
    62    33    34 1   
    63    34    35 2   
    64    34    37 1   
    65    35    36 1   
    66    35    39 1   
    67    36    38 2   
    68    37    67 1   
    69    37    68 1   
    70    37    69 1   
    71    39    40 1   
    72    39    70 1   
    73    39    71 1   
    74    40    41 1   
    75    40    72 1   
    76    40    73 1   
    77    41    42 1   
    78    41    43 1   
@<TRIPOS>SUBSTRUCTURE
     1 BLV         1 TEMP              0 ****  ****    0 ROOT
