@<TRIPOS>MOLECULE
BLV
   75    78     1     0     0
SMALL
abcg2


@<TRIPOS>ATOM
      1 NA           1.5920     1.0830    -0.2170 ns         1 BLV      -0.440100
      2 C1A          1.3090     1.4590    -1.5110 c          1 BLV       0.547200
      3 C2A          2.3500     0.8410    -2.3590 cc         1 BLV      -0.068400
      4 C3A          3.2190     0.2060    -1.5500 cd         1 BLV      -0.141200
      5 C4A          2.7460     0.3250    -0.1710 cd         1 BLV       0.144600
      6 CMA          4.4360    -0.5570    -1.9310 c3         1 BLV      -0.024900
      7 OA           0.3950     2.1860    -1.8430 o          1 BLV      -0.479000
      8 CAA          2.3450     0.9140    -3.8460 c3         1 BLV      -0.021200
      9 CBA          1.8740    -0.3950    -4.4820 c3         1 BLV      -0.199400
     10 CGA          1.9390    -0.4300    -6.0170 c          1 BLV       0.732000
     11 O1A          2.0990     0.6510    -6.6170 o          1 BLV      -0.734500
     12 O2A          1.8270    -1.5580    -6.5420 o          1 BLV      -0.734500
     13 CHB          3.3290    -0.2400     0.9060 ce         1 BLV      -0.293200
     14 NB           1.5140    -0.1770     2.5730 na         1 BLV      -0.090000
     15 C1B          2.8280    -0.3050     2.2480 cc         1 BLV      -0.034800
     16 C2B          3.5380    -0.5260     3.4280 cd         1 BLV      -0.168300
     17 C3B          2.6070    -0.5320     4.4790 cd         1 BLV      -0.101800
     18 C4B          1.3320    -0.3030     3.9270 cc         1 BLV      -0.153800
     19 CMB          5.0090    -0.7320     3.5600 c3         1 BLV      -0.004800
     20 CAB          2.9420    -0.7290     5.8810 cf         1 BLV      -0.107200
     21 CBB          2.2120    -1.3870     6.7830 c2         1 BLV      -0.354000
     22 CHC          0.1180    -0.1140     4.6230 ce         1 BLV      -0.122200
     23 NC          -1.5070    -0.1500     2.8060 na         1 BLV      -0.676000
     24 C1C         -1.1460     0.0090     4.1250 cd         1 BLV       0.073000
     25 C2C         -2.3380     0.4160     4.8250 cd         1 BLV      -0.049200
     26 C3C         -3.3530     0.5130     3.9010 cc         1 BLV      -0.099000
     27 C4C         -2.7990     0.1520     2.6180 cc         1 BLV       0.215000
     28 CMC         -2.4000     0.7210     6.2780 c3         1 BLV      -0.038900
     29 CAC         -4.7350     0.9260     4.0780 ce         1 BLV      -0.132000
     30 CBC         -5.4650     0.7990     5.1880 c2         1 BLV      -0.334000
     31 CHD         -3.3910     0.0860     1.3520 cf         1 BLV      -0.418600
     32 ND          -1.3800    -0.6920     0.2630 nc         1 BLV      -0.819100
     33 C1D         -2.6610    -0.3020     0.2360 cd         1 BLV       0.619900
     34 C2D         -3.2180    -0.3410    -1.1400 cd         1 BLV      -0.290800
     35 C3D         -2.2270    -0.7660    -1.9330 cc         1 BLV      -0.076400
     36 C4D         -1.0470    -1.0210    -1.0310 c          1 BLV       0.670700
     37 CMD         -4.6050     0.0610    -1.4960 c3         1 BLV      -0.013900
     38 OD           0.0200    -1.4810    -1.3880 o          1 BLV      -0.481100
     39 CAD         -2.1930    -0.9300    -3.4100 c3         1 BLV      -0.023200
     40 CBD         -1.9430     0.4040    -4.1130 c3         1 BLV      -0.200400
     41 CGD         -1.9190     0.3460    -5.6490 c          1 BLV       0.727000
     42 O1D         -1.9680    -0.7740    -6.1920 o          1 BLV      -0.725500
     43 O2D         -1.8550     1.4500    -6.2290 o          1 BLV      -0.725500
     44 HA           1.1770     1.5540     0.5710 hn         1 BLV       0.319500
     45 HMA1         5.3070    -0.2280    -1.3610 hc         1 BLV       0.041700
     46 HMA2         4.3110    -1.6240    -1.7400 hc         1 BLV       0.041700
     47 HMA3         4.6610    -0.4330    -2.9890 hc         1 BLV       0.041700
     48 HAA1         1.7030     1.7340    -4.1720 hc         1 BLV       0.066200
     49 HAA2         3.3510     1.1490    -4.2030 hc         1 BLV       0.066200
     50 HBA1         2.4600    -1.2300    -4.0840 hc         1 BLV       0.031700
     51 HBA2         0.8430    -0.6010    -4.1750 hc         1 BLV       0.031700
     52 HHB          4.2860    -0.7170     0.7380 ha         1 BLV       0.197000
     53 HMB1         5.2440    -1.7580     3.8480 hc         1 BLV       0.028700
     54 HMB2         5.5360    -0.5190     2.6320 hc         1 BLV       0.028700
     55 HMB3         5.4330    -0.0810     4.3270 hc         1 BLV       0.028700
     56 HAB          3.8960    -0.3140     6.1960 ha         1 BLV       0.161000
     57 HBB1         2.5440    -1.4690     7.8090 ha         1 BLV       0.156000
     58 HBB2         1.2830    -1.8830     6.5320 ha         1 BLV       0.156000
     59 HHC          0.2260    -0.0190     5.6960 ha         1 BLV       0.188000
     60 HMC1        -3.1020     1.5310     6.4770 hc         1 BLV       0.043700
     61 HMC2        -2.7400    -0.1460     6.8480 hc         1 BLV       0.043700
     62 HMC3        -1.4300     1.0130     6.6770 hc         1 BLV       0.043700
     63 HAC         -5.2070     1.3700     3.2060 ha         1 BLV       0.181000
     64 HBC1        -6.4860     1.1530     5.2160 ha         1 BLV       0.156500
     65 HBC2        -5.0930     0.3240     6.0860 ha         1 BLV       0.156500
     66 HHD         -4.4350     0.3460     1.2440 ha         1 BLV       0.193000
     67 HMD1        -5.3470    -0.4890    -0.9130 hc         1 BLV       0.034700
     68 HMD2        -4.7690     1.1230    -1.2980 hc         1 BLV       0.034700
     69 HMD3        -4.8080    -0.1150    -2.5510 hc         1 BLV       0.034700
     70 HAD1        -1.4100    -1.6400    -3.6800 hc         1 BLV       0.067200
     71 HAD2        -3.1370    -1.3560    -3.7580 hc         1 BLV       0.067200
     72 HBD1        -2.7070     1.1250    -3.8040 hc         1 BLV       0.025200
     73 HBD2        -0.9950     0.8290    -3.7690 hc         1 BLV       0.025200
     74 HB           0.7860    -0.0840     1.8840 hn         1 BLV       0.375000
     75 HC          -1.0150    -0.5630     2.0010 hn         1 BLV       0.583000
@<TRIPOS>BOND
     1     1     2 1   
     2     1     5 1   
     3     1    44 1   
     4     2     3 1   
     5     2     7 2   
     6     3     4 2   
     7     3     8 1   
     8     4     5 1   
     9     4     6 1   
    10     5    13 2   
    11     6    45 1   
    12     6    46 1   
    13     6    47 1   
    14     8     9 1   
    15     8    48 1   
    16     8    49 1   
    17     9    10 1   
    18     9    50 1   
    19     9    51 1   
    20    10    11 1   
    21    10    12 1   
    22    13    15 1   
    23    13    52 1   
    24    14    15 1   
    25    14    18 1   
    26    14    74 1   
    27    15    16 2   
    28    16    17 1   
    29    16    19 1   
    30    17    18 2   
    31    17    20 1   
    32    18    22 1   
    33    19    53 1   
    34    19    54 1   
    35    19    55 1   
    36    20    21 2   
    37    20    56 1   
    38    21    57 1   
    39    21    58 1   
    40    22    24 2   
    41    22    59 1   
    42    23    24 1   
    43    23    27 1   
    44    23    75 1   
    45    24    25 1   
    46    25    26 2   
    47    25    28 1   
    48    26    27 1   
    49    26    29 1   
    50    27    31 2   
    51    28    60 1   
    52    28    61 1   
    53    28    62 1   
    54    29    30 2   
    55    29    63 1   
    56    30    64 1   
    57    30    65 1   
    58    31    33 1   
    59    31    66 1   
    60    32    33 2   
    61    32    36 1   
    62    33    34 1   
    63    34    35 2   
    64    34    37 1   
    65    35    36 1   
    66    35    39 1   
    67    36    38 2   
    68    37    67 1   
    69    37    68 1   
    70    37    69 1   
    71    39    40 1   
    72    39    70 1   
    73    39    71 1   
    74    40    41 1   
    75    40    72 1   
    76    40    73 1   
    77    41    42 1   
    78    41    43 1   
@<TRIPOS>SUBSTRUCTURE
     1 BLV         1 TEMP              0 ****  ****    0 ROOT
