@<TRIPOS>MOLECULE
BLZ
   51    54     1     0     0
SMALL
abcg2


@<TRIPOS>ATOM
      1 C1          -6.5740   208.2700   110.9110 c3         1 BLZ       0.144900
      2 O2          -7.5220   207.9580   111.9300 os         1 BLZ      -0.329100
      3 C3          -8.7500   207.5210   111.5410 ca         1 BLZ       0.100100
      4 C4          -9.1500   207.3890   110.2230 ca         1 BLZ      -0.115000
      5 C5         -10.4460   206.9280   109.9670 ca         1 BLZ       0.070400
      6 N6         -11.0920   206.7340   108.7510 nc         1 BLZ      -0.554100
      7 C7         -12.2900   206.3160   109.0540 cd         1 BLZ       0.424700
      8 N8         -12.4960   206.2110   110.4190 na         1 BLZ      -0.079400
      9 C9         -13.6750   205.8090   111.0410 cc         1 BLZ      -0.089200
     10 C10        -13.7870   205.0360   112.1660 cd         1 BLZ      -0.214000
     11 C11        -15.1490   204.8280   112.5140 cd         1 BLZ       0.164100
     12 O12        -15.5980   204.0780   113.5430 os         1 BLZ      -0.355100
     13 C13        -14.6760   203.7000   114.5890 c3         1 BLZ       0.226600
     14 C14        -15.4210   202.6970   115.4540 c3         1 BLZ      -0.089100
     15 C15        -14.2290   204.9120   115.3750 ca         1 BLZ      -0.117300
     16 C16        -15.0610   206.0250   115.4970 ca         1 BLZ      -0.081000
     17 C17        -14.6860   207.1290   116.2500 ca         1 BLZ      -0.103000
     18 C18        -13.4630   207.1340   116.9120 ca         1 BLZ      -0.093000
     19 C19        -12.6190   206.0360   116.8120 ca         1 BLZ      -0.110000
     20 C20        -13.0060   204.9460   116.0440 ca         1 BLZ       0.127000
     21 CL2        -11.9000   203.5880   115.9330 cl         1 BLZ      -0.211000
     22 C22        -16.0400   205.4470   111.6580 cc         1 BLZ      -0.342600
     23 S23        -15.2010   206.3130   110.4090 ss         1 BLZ       0.328000
     24 C24        -17.5040   205.4970   111.6480 c          1 BLZ       0.647700
     25 O25        -18.1070   206.1170   110.7610 o          1 BLZ      -0.628100
     26 N26        -18.1450   204.8510   112.6440 nt         1 BLZ      -0.597000
     27 C27        -11.3020   206.6050   111.0260 ca         1 BLZ      -0.060200
     28 C28        -10.9240   206.7350   112.3620 ca         1 BLZ      -0.175000
     29 C29         -9.6390   207.1960   112.6110 ca         1 BLZ       0.137100
     30 O30         -9.1280   207.3730   113.8560 os         1 BLZ      -0.322100
     31 C31         -9.9580   207.0340   114.9650 c3         1 BLZ       0.140900
     32 H11         -6.9310   209.0870   110.2790 h1         1 BLZ       0.042700
     33 H12         -5.6700   208.5770   111.4300 h1         1 BLZ       0.042700
     34 H13A        -6.3640   207.3960   110.2900 h1         1 BLZ       0.042700
     35 H4          -8.4920   207.6360   109.4030 ha         1 BLZ       0.139000
     36 H7         -13.0670   206.0480   108.3550 h5         1 BLZ       0.072800
     37 H10        -12.9430   204.6170   112.6870 ha         1 BLZ       0.155000
     38 H13        -13.8170   203.2130   114.1280 h1         1 BLZ       0.069700
     39 H141       -14.7730   202.3590   116.2630 hc         1 BLZ       0.056033
     40 H142       -16.3080   203.1610   115.8880 hc         1 BLZ       0.056033
     41 H143       -15.7190   201.8350   114.8570 hc         1 BLZ       0.056033
     42 H16        -16.0150   206.0220   114.9860 ha         1 BLZ       0.130000
     43 H17        -15.3480   207.9820   116.3230 ha         1 BLZ       0.126000
     44 H18        -13.1590   207.9890   117.5020 ha         1 BLZ       0.124000
     45 H19        -11.6640   206.0230   117.3190 ha         1 BLZ       0.131000
     46 H261       -19.1510   204.8870   112.6770 hn         1 BLZ       0.325000
     47 H262       -17.6360   204.3590   113.3610 hn         1 BLZ       0.325000
     48 H28        -11.5980   206.4940   113.1680 ha         1 BLZ       0.132000
     49 H311        -9.3690   207.2380   115.8550 h1         1 BLZ       0.042700
     50 H312       -10.8660   207.6400   114.9770 h1         1 BLZ       0.042700
     51 H313       -10.2300   205.9760   114.9380 h1         1 BLZ       0.042700
@<TRIPOS>BOND
     1     1     2 1   
     2     1    32 1   
     3     1    33 1   
     4     1    34 1   
     5     2     3 1   
     6     3     4 ar  
     7     3    29 ar  
     8     4     5 ar  
     9     4    35 1   
    10     5     6 1   
    11     5    27 ar  
    12     6     7 2   
    13     7     8 1   
    14     7    36 1   
    15     8     9 1   
    16     8    27 1   
    17     9    10 2   
    18     9    23 1   
    19    10    11 1   
    20    10    37 1   
    21    11    12 1   
    22    11    22 2   
    23    12    13 1   
    24    13    14 1   
    25    13    15 1   
    26    13    38 1   
    27    14    39 1   
    28    14    40 1   
    29    14    41 1   
    30    15    16 ar  
    31    15    20 ar  
    32    16    17 ar  
    33    16    42 1   
    34    17    18 ar  
    35    17    43 1   
    36    18    19 ar  
    37    18    44 1   
    38    19    20 ar  
    39    19    45 1   
    40    20    21 1   
    41    22    23 1   
    42    22    24 1   
    43    24    25 2   
    44    24    26 1   
    45    26    46 1   
    46    26    47 1   
    47    27    28 ar  
    48    28    29 ar  
    49    28    48 1   
    50    29    30 1   
    51    30    31 1   
    52    31    49 1   
    53    31    50 1   
    54    31    51 1   
@<TRIPOS>SUBSTRUCTURE
     1 BLZ         1 TEMP              0 ****  ****    0 ROOT
