@<TRIPOS>MOLECULE
BLZ
   51    54     1     0     0
SMALL
No Charge or Current Charge


@<TRIPOS>ATOM
      1 C1          -6.4100   207.8710   110.8920 c3         1 BLZ       0.144900
      2 O2          -7.4330   207.7090   111.8910 os         1 BLZ      -0.329100
      3 C3          -8.7450   207.3930   111.5700 ca         1 BLZ       0.100100
      4 C4          -9.1610   207.2310   110.2250 ca         1 BLZ      -0.115000
      5 C5         -10.5000   206.9170   109.9650 ca         1 BLZ       0.070400
      6 N6         -11.0870   206.7970   108.7150 nc         1 BLZ      -0.554100
      7 C7         -12.3790   206.5530   109.0180 cd         1 BLZ       0.424700
      8 N8         -12.6100   206.4620   110.4020 na         1 BLZ      -0.079400
      9 C9         -13.8280   206.1770   111.0260 cc         1 BLZ      -0.089200
     10 C10        -13.8430   205.3790   112.1430 cd         1 BLZ      -0.214000
     11 C11        -15.1830   204.9860   112.4380 cd         1 BLZ       0.164100
     12 O12        -15.5330   204.2030   113.5080 os         1 BLZ      -0.355100
     13 C13        -14.5710   203.7850   114.4940 c3         1 BLZ       0.226600
     14 C14        -15.2520   202.6740   115.3120 c3         1 BLZ      -0.089100
     15 C15        -14.1630   204.9640   115.3910 ca         1 BLZ      -0.117300
     16 C16        -15.0370   206.0600   115.5860 ca         1 BLZ      -0.081000
     17 C17        -14.6770   207.1220   116.4330 ca         1 BLZ      -0.103000
     18 C18        -13.4490   207.0980   117.1120 ca         1 BLZ      -0.093000
     19 C19        -12.5800   206.0090   116.9390 ca         1 BLZ      -0.110000
     20 C20        -12.9270   204.9520   116.0800 ca         1 BLZ       0.127000
     21 Cl2        -11.7880   203.6170   115.9030 cl         1 BLZ      -0.211000
     22 C22        -16.1340   205.4380   111.5420 cc         1 BLZ      -0.342600
     23 S23        -15.3810   206.3240   110.2180 ss         1 BLZ       0.328000
     24 C24        -17.5910   205.2400   111.5750 c          1 BLZ       0.647700
     25 O25        -18.3460   205.6740   110.7240 o          1 BLZ      -0.628100
     26 N26        -18.0910   204.5450   112.6080 nt         1 BLZ      -0.597000
     27 C27        -11.3960   206.7370   110.9870 ca         1 BLZ      -0.060200
     28 C28        -11.0390   206.9320   112.3330 ca         1 BLZ      -0.175000
     29 C29         -9.6880   207.2540   112.6250 ca         1 BLZ       0.137100
     30 O30         -9.2530   207.4560   113.9240 os         1 BLZ      -0.322100
     31 C31        -10.1110   207.2680   115.0600 c3         1 BLZ       0.140900
     32 H11         -6.6620   208.6890   110.2040 h1         1 BLZ       0.042700
     33 H12         -5.4510   208.1110   111.3670 h1         1 BLZ       0.042700
     34 H13A        -6.2810   206.9490   110.3120 h1         1 BLZ       0.042700
     35 H4          -8.4790   207.3600   109.3910 ha         1 BLZ       0.139000
     36 H7         -13.1750   206.3950   108.3010 h5         1 BLZ       0.072800
     37 H10        -12.9680   205.0550   112.6920 ha         1 BLZ       0.155000
     38 H13        -13.6910   203.3540   113.9990 h1         1 BLZ       0.069700
     39 H141       -14.5680   202.2820   116.0740 hc         1 BLZ       0.056033
     40 H142       -16.1470   203.0560   115.8170 hc         1 BLZ       0.056033
     41 H143       -15.5470   201.8430   114.6600 hc         1 BLZ       0.056033
     42 H16        -16.0020   206.0930   115.0870 ha         1 BLZ       0.130000
     43 H17        -15.3570   207.9600   116.5710 ha         1 BLZ       0.126000
     44 H18        -13.1750   207.9170   117.7740 ha         1 BLZ       0.124000
     45 H19        -11.6330   205.9840   117.4720 ha         1 BLZ       0.131000
     46 H261       -19.0830   204.3840   112.6690 hn         1 BLZ       0.325000
     47 H262       -17.4530   204.1820   113.3010 hn         1 BLZ       0.325000
     48 H28        -11.7850   206.8620   113.1160 ha         1 BLZ       0.132000
     49 H311        -9.5610   207.4640   115.9890 h1         1 BLZ       0.042700
     50 H312       -10.9690   207.9520   115.0220 h1         1 BLZ       0.042700
     51 H313       -10.4800   206.2360   115.0940 h1         1 BLZ       0.042700
@<TRIPOS>BOND
     1     1     2 1   
     2     1    32 1   
     3     1    33 1   
     4     1    34 1   
     5     2     3 1   
     6     3     4 ar  
     7     3    29 ar  
     8     4     5 ar  
     9     4    35 1   
    10     5     6 1   
    11     5    27 ar  
    12     6     7 2   
    13     7     8 1   
    14     7    36 1   
    15     8     9 1   
    16     8    27 1   
    17     9    10 2   
    18     9    23 1   
    19    10    11 1   
    20    10    37 1   
    21    11    12 1   
    22    11    22 2   
    23    12    13 1   
    24    13    14 1   
    25    13    15 1   
    26    13    38 1   
    27    14    39 1   
    28    14    40 1   
    29    14    41 1   
    30    15    16 ar  
    31    15    20 ar  
    32    16    17 ar  
    33    16    42 1   
    34    17    18 ar  
    35    17    43 1   
    36    18    19 ar  
    37    18    44 1   
    38    19    20 ar  
    39    19    45 1   
    40    20    21 1   
    41    22    23 1   
    42    22    24 1   
    43    24    25 2   
    44    24    26 1   
    45    26    46 1   
    46    26    47 1   
    47    27    28 ar  
    48    28    29 ar  
    49    28    48 1   
    50    29    30 1   
    51    30    31 1   
    52    31    49 1   
    53    31    50 1   
    54    31    51 1   
@<TRIPOS>SUBSTRUCTURE
     1 BLZ         1 TEMP              0 ****  ****    0 ROOT
