@<TRIPOS>MOLECULE
BM0
   25    25     1     0     0
SMALL
bcc


@<TRIPOS>ATOM
      1 C1          -3.3670    -0.1120    -0.3200 c3         1 BM0      -0.072400
      2 C2          -1.9370    -0.0600     0.2020 c3         1 BM0      -0.099400
      3 C3          -0.9520     0.2470    -0.9160 c3         1 BM0       0.025300
      4 C4           0.9800     1.3250     0.2870 cc         1 BM0      -0.118300
      5 C5           2.2470     0.9550     0.5870 cd         1 BM0      -0.124300
      6 C6           1.3210    -0.6680    -0.5540 cc         1 BM0      -0.039600
      7 N1           2.4360    -0.2930     0.0530 na         1 BM0      -0.004100
      8 N            0.4230     0.2980    -0.4290 na         1 BM0      -0.004100
      9 C           -4.3730    -0.4120     0.7820 c3         1 BM0      -0.092100
     10 H4          -3.6170     0.8420    -0.7920 hc         1 BM0       0.049700
     11 H3          -3.4430    -0.8720    -1.1030 hc         1 BM0       0.049700
     12 H5          -1.8560     0.7030     0.9820 hc         1 BM0       0.060200
     13 H6          -1.6720    -1.0160     0.6600 hc         1 BM0       0.060200
     14 H8          -0.9930    -0.5130    -1.6950 h1         1 BM0       0.090200
     15 H7          -1.1690     1.2080    -1.3800 h1         1 BM0       0.090200
     16 H9           0.4390     2.2260     0.5190 h4         1 BM0       0.228000
     17 H10          3.0210     1.4720     1.1270 h4         1 BM0       0.228000
     18 H11          1.1680    -1.6030    -1.0660 h5         1 BM0       0.246000
     19 H13          4.4550    -0.5490    -0.4080 h1         1 BM0       0.091700
     20 H14          3.9480    -1.1950     1.1670 h1         1 BM0       0.091700
     21 H12          3.4990    -2.0400    -0.3230 h1         1 BM0       0.091700
     22 H           -4.1700    -1.3750     1.2530 hc         1 BM0       0.047033
     23 H2          -4.3440     0.3500     1.5620 hc         1 BM0       0.047033
     24 H1          -5.3890    -0.4440     0.3890 hc         1 BM0       0.047033
     25 C7           3.6630    -1.0660     0.1270 c3         1 BM0       0.010600
@<TRIPOS>BOND
     1     1     2 1   
     2     1     9 1   
     3     1    10 1   
     4     1    11 1   
     5     2     3 1   
     6     2    12 1   
     7     2    13 1   
     8     3     8 1   
     9     3    14 1   
    10     3    15 1   
    11     4     5 2   
    12     4     8 1   
    13     4    16 1   
    14     5     7 1   
    15     5    17 1   
    16     6     7 2   
    17     6     8 1   
    18     6    18 1   
    19     7    25 1   
    20     9    22 1   
    21     9    23 1   
    22     9    24 1   
    23    19    25 1   
    24    20    25 1   
    25    21    25 1   
@<TRIPOS>SUBSTRUCTURE
     1 BM0         1 TEMP              0 ****  ****    0 ROOT
