@<TRIPOS>MOLECULE
BM0
   25    25     1     0     0
SMALL
No Charge or Current Charge


@<TRIPOS>ATOM
      1 C1          -3.4330    -0.0880    -0.3040 c3         1 BM0      -0.072400
      2 C2          -1.9690    -0.0830     0.1880 c3         1 BM0      -0.099400
      3 C3          -0.9650     0.3330    -0.9110 c3         1 BM0       0.054600
      4 C4           1.0850     1.4180     0.1540 cc         1 BM0      -0.151000
      5 C5           2.3710     1.0140     0.4610 cd         1 BM0      -0.157000
      6 C6           1.3040    -0.7300    -0.4970 cc         1 BM0      -0.072300
      7 N1           2.4780    -0.2960     0.0550 na         1 BM0       0.017300
      8 N            0.4270     0.3380    -0.4400 na         1 BM0       0.068000
      9 C           -4.4340    -0.5020     0.7920 c3         1 BM0      -0.092100
     10 H4          -3.6980     0.9120    -0.6700 hc         1 BM0       0.049700
     11 H3          -3.5300    -0.7760    -1.1540 hc         1 BM0       0.049700
     12 H5          -1.8750     0.6040     1.0380 hc         1 BM0       0.060200
     13 H6          -1.7060    -1.0840     0.5540 hc         1 BM0       0.060200
     14 H8          -1.0430    -0.3570    -1.7610 h1         1 BM0       0.090200
     15 H7          -1.2130     1.3380    -1.2740 h1         1 BM0       0.090200
     16 H9           0.5940     2.3720     0.3110 h4         1 BM0       0.210000
     17 H10          3.1880     1.5560     0.9290 h4         1 BM0       0.210000
     18 H11          1.0970    -1.7170    -0.8960 h5         1 BM0       0.228000
     19 H13          4.5500    -0.5670    -0.2220 h1         1 BM0       0.091700
     20 H14          3.8810    -1.2920     1.2700 h1         1 BM0       0.091700
     21 H12          3.5780    -2.0630    -0.3140 h1         1 BM0       0.091700
     22 H           -4.2170    -1.5140     1.1550 hc         1 BM0       0.047033
     23 H2          -4.3870     0.1880     1.6430 hc         1 BM0       0.047033
     24 H1          -5.4580    -0.4920     0.3990 hc         1 BM0       0.047033
     25 C7           3.6950    -1.1040     0.2060 c3         1 BM0       0.039900
@<TRIPOS>BOND
     1     1     2 1   
     2     1     9 1   
     3     1    10 1   
     4     1    11 1   
     5     2     3 1   
     6     2    12 1   
     7     2    13 1   
     8     3     8 1   
     9     3    14 1   
    10     3    15 1   
    11     4     5 2   
    12     4     8 1   
    13     4    16 1   
    14     5     7 1   
    15     5    17 1   
    16     6     7 2   
    17     6     8 1   
    18     6    18 1   
    19     7    25 1   
    20     9    22 1   
    21     9    23 1   
    22     9    24 1   
    23    19    25 1   
    24    20    25 1   
    25    21    25 1   
@<TRIPOS>SUBSTRUCTURE
     1 BM0         1 TEMP              0 ****  ****    0 ROOT
