@<TRIPOS>MOLECULE
BM1
   35    38     1     0     0
SMALL
bcc


@<TRIPOS>ATOM
      1 S1          -1.5140     1.7980     0.1530 ss         1 BM1      -0.363200
      2 C2          -3.0760     0.9760    -0.3180 c5         1 BM1      -0.005300
      3 C3          -2.7720    -0.5230    -0.3030 c5         1 BM1       0.086000
      4 C5          -0.5050     0.2460    -0.0630 c5         1 BM1       0.311100
      5 N4          -1.4030    -0.6560    -0.7380 n          1 BM1      -0.454800
      6 C6          -1.0360    -0.9080    -2.0360 c          1 BM1       0.721100
      7 OE          -1.6980    -1.5100    -2.8550 o          1 BM1      -0.586500
      8 C7           0.2930    -0.2920    -2.2100 ca         1 BM1      -0.165600
      9 C12          0.6040     0.4220    -1.0650 ca         1 BM1      -0.053300
     10 C8           1.1360    -0.3200    -3.3080 ca         1 BM1      -0.055000
     11 C9           2.3240     0.3930    -3.2260 ca         1 BM1      -0.137000
     12 C10          2.6440     1.1050    -2.0700 ca         1 BM1      -0.103000
     13 C11          1.7910     1.1240    -0.9720 ca         1 BM1      -0.099000
     14 C13          0.0050    -0.2870     1.2600 ca         1 BM1      -0.076300
     15 C14          0.5260     0.5800     2.2170 ca         1 BM1      -0.107000
     16 C15          1.0800     0.1080     3.4010 ca         1 BM1      -0.078300
     17 CA           1.6650     1.0540     4.4090 c3         1 BM1      -0.046800
     18 C16          1.0900    -1.2680     3.6270 ca         1 BM1      -0.120000
     19 C17          0.5690    -2.1390     2.6840 ca         1 BM1      -0.130000
     20 C18          0.0340    -1.6550     1.4970 ca         1 BM1      -0.105000
     21 H21         -3.8560     1.2390     0.3940 h1         1 BM1       0.079700
     22 H22         -3.3760     1.3090    -1.3100 h1         1 BM1       0.079700
     23 H31         -2.8780    -0.9250     0.7050 h1         1 BM1       0.080700
     24 H32         -3.4330    -1.0800    -0.9640 h1         1 BM1       0.080700
     25 H81          0.8780    -0.8800    -4.1970 ha         1 BM1       0.153000
     26 H91          3.0110     0.3970    -4.0610 ha         1 BM1       0.138000
     27 H101         3.5760     1.6540    -2.0280 ha         1 BM1       0.135000
     28 H111         2.0590     1.6790    -0.0820 ha         1 BM1       0.146000
     29 H141         0.4950     1.6510     2.0490 ha         1 BM1       0.139000
     30 HA1          2.7560     1.0140     4.3920 hc         1 BM1       0.043367
     31 HA2          1.3710     2.0840     4.2120 hc         1 BM1       0.043367
     32 HA3          1.3510     0.8000     5.4220 hc         1 BM1       0.043367
     33 H161         1.5050    -1.6570     4.5490 ha         1 BM1       0.130000
     34 H171         0.5770    -3.2050     2.8720 ha         1 BM1       0.133000
     35 H181        -0.3660    -2.3450     0.7660 ha         1 BM1       0.145000
@<TRIPOS>BOND
     1     1     2 1   
     2     1     4 1   
     3     2     3 1   
     4     2    21 1   
     5     2    22 1   
     6     3     5 1   
     7     3    23 1   
     8     3    24 1   
     9     4     5 1   
    10     4     9 1   
    11     4    14 1   
    12     5     6 1   
    13     6     7 2   
    14     6     8 1   
    15     8     9 ar  
    16     8    10 ar  
    17     9    13 ar  
    18    10    11 ar  
    19    10    25 1   
    20    11    12 ar  
    21    11    26 1   
    22    12    13 ar  
    23    12    27 1   
    24    13    28 1   
    25    14    15 ar  
    26    14    20 ar  
    27    15    16 ar  
    28    15    29 1   
    29    16    17 1   
    30    16    18 ar  
    31    17    30 1   
    32    17    31 1   
    33    17    32 1   
    34    18    19 ar  
    35    18    33 1   
    36    19    20 ar  
    37    19    34 1   
    38    20    35 1   
@<TRIPOS>SUBSTRUCTURE
     1 BM1         1 TEMP              0 ****  ****    0 ROOT
