@<TRIPOS>MOLECULE
BM1
   35    38     1     0     0
SMALL
No Charge or Current Charge


@<TRIPOS>ATOM
      1 S1          -1.2710     2.0840     0.0690 ss         1 BM1      -0.459000
      2 C2          -2.9230     1.2350    -0.1740 c5         1 BM1       0.042600
      3 C3          -2.6790    -0.2910    -0.0290 c5         1 BM1       0.086000
      4 C5          -0.3200     0.4910    -0.0920 c5         1 BM1       0.359000
      5 N4          -1.3490    -0.4170    -0.6370 n          1 BM1      -0.387800
      6 C6          -1.1000    -0.8910    -1.9240 c          1 BM1       0.578600
      7 OE          -1.8560    -1.5530    -2.6210 o          1 BM1      -0.511000
      8 C7           0.2370    -0.3810    -2.2790 ca         1 BM1      -0.165600
      9 C12          0.6790     0.4360    -1.2470 ca         1 BM1      -0.053300
     10 C8           0.9900    -0.5920    -3.4430 ca         1 BM1      -0.037000
     11 C9           2.2430     0.0450    -3.5420 ca         1 BM1      -0.119000
     12 C10          2.7090     0.8730    -2.4940 ca         1 BM1      -0.085000
     13 C11          1.9260     1.0730    -1.3370 ca         1 BM1      -0.081000
     14 C13          0.2050    -0.1360     1.2120 ca         1 BM1      -0.076300
     15 C14          0.3340     0.6240     2.3980 ca         1 BM1      -0.089000
     16 C15          0.8250     0.0440     3.5840 ca         1 BM1      -0.078300
     17 CA           0.9530     0.8830     4.8470 c3         1 BM1      -0.046800
     18 C16          1.2060    -1.3080     3.5900 ca         1 BM1      -0.102000
     19 C17          1.0970    -2.0730     2.4190 ca         1 BM1      -0.112000
     20 C18          0.6040    -1.4920     1.2400 ca         1 BM1      -0.087000
     21 H21         -3.6640     1.6030     0.5490 h1         1 BM1       0.079700
     22 H22         -3.2910     1.4690    -1.1820 h1         1 BM1       0.079700
     23 H31         -2.6560    -0.5970     1.0260 h1         1 BM1       0.080700
     24 H32         -3.4440    -0.8840    -0.5470 h1         1 BM1       0.080700
     25 H81          0.6180    -1.2270    -4.2450 ha         1 BM1       0.135000
     26 H91          2.8540    -0.0990    -4.4310 ha         1 BM1       0.120000
     27 H101         3.6780     1.3600    -2.5800 ha         1 BM1       0.117000
     28 H111         2.2820     1.7070    -0.5290 ha         1 BM1       0.128000
     29 H141         0.0580     1.6750     2.4090 ha         1 BM1       0.121000
     30 HA1          1.9060     1.4240     4.8610 hc         1 BM1       0.043367
     31 HA2          0.1460     1.6220     4.9180 hc         1 BM1       0.043367
     32 HA3          0.9080     0.2600     5.7490 hc         1 BM1       0.043367
     33 H161         1.5910    -1.7660     4.4990 ha         1 BM1       0.112000
     34 H171         1.3980    -3.1190     2.4240 ha         1 BM1       0.115000
     35 H181         0.5350    -2.1010     0.3420 ha         1 BM1       0.127000
@<TRIPOS>BOND
     1     1     2 1   
     2     1     4 1   
     3     2     3 1   
     4     2    21 1   
     5     2    22 1   
     6     3     5 1   
     7     3    23 1   
     8     3    24 1   
     9     4     5 1   
    10     4     9 1   
    11     4    14 1   
    12     5     6 1   
    13     6     7 2   
    14     6     8 1   
    15     8     9 ar  
    16     8    10 ar  
    17     9    13 ar  
    18    10    11 ar  
    19    10    25 1   
    20    11    12 ar  
    21    11    26 1   
    22    12    13 ar  
    23    12    27 1   
    24    13    28 1   
    25    14    15 ar  
    26    14    20 ar  
    27    15    16 ar  
    28    15    29 1   
    29    16    17 1   
    30    16    18 ar  
    31    17    30 1   
    32    17    31 1   
    33    17    32 1   
    34    18    19 ar  
    35    18    33 1   
    36    19    20 ar  
    37    19    34 1   
    38    20    35 1   
@<TRIPOS>SUBSTRUCTURE
     1 BM1         1 TEMP              0 ****  ****    0 ROOT
