@<TRIPOS>MOLECULE
BM2
   67    69     1     0     0
SMALL
abcg2


@<TRIPOS>ATOM
      1 C27          3.5860    -0.1510     0.0680 c          1 BM2       0.601100
      2 O28          3.9450    -0.9910     0.8820 o          1 BM2      -0.604100
      3 C29          4.4660     1.0140    -0.3350 c3         1 BM2      -0.157400
      4 C30          5.9500     0.7530    -0.1350 c3         1 BM2      -0.080400
      5 C31          6.7710     1.9860    -0.4800 c3         1 BM2       0.221800
      6 N32          8.1800     1.7180    -0.3130 nu         1 BM2      -0.900400
      7 C33          9.0920     2.7380    -0.3570 c2         1 BM2       0.797100
      8 N35          8.7030     3.9600    -0.3560 n2         1 BM2      -0.900100
      9 N34         10.4050     2.3170    -0.3040 nv         1 BM2      -1.069200
     10 N26          2.3770    -0.1630    -0.5240 ns         1 BM2      -0.509900
     11 C25          1.3150    -1.0950    -0.2290 c3         1 BM2       0.090000
     12 C24          0.2000    -0.4220     0.5750 c5         1 BM2       0.086700
     13 N20         -0.8720    -1.3650     0.9220 n          1 BM2      -0.399800
     14 C21         -1.0150    -1.5000     2.3690 c5         1 BM2       0.101000
     15 C22         -0.4820    -0.1710     2.8790 c5         1 BM2      -0.097400
     16 C23          0.6800     0.1040     1.9340 c5         1 BM2      -0.092400
     17 N14         -3.8690    -2.7980    -0.5980 n7         1 BM2      -0.831300
     18 C15         -2.8180    -2.7920     0.4070 c3         1 BM2       0.132500
     19 C18         -1.7040    -1.8250    -0.0210 c          1 BM2       0.588100
     20 O19         -1.5890    -1.5280    -1.2030 o          1 BM2      -0.613100
     21 C16         -2.2590    -4.1930     0.6120 c3         1 BM2       0.174600
     22 O17         -1.6120    -4.5900    -0.5670 oh         1 BM2      -0.647000
     23 O13         -5.8070    -1.6410    -1.6400 o          1 BM2      -0.530500
     24 O12         -5.9110    -2.3360     0.7750 o          1 BM2      -0.530500
     25 C2          -3.8330     0.5290    -0.7530 ca         1 BM2       0.034000
     26 C1          -4.4730    -0.2480     0.1740 ca         1 BM2      -0.313500
     27 C8          -4.4970     0.0970     1.5420 ca         1 BM2      -0.040000
     28 C7          -3.8480     1.2260     1.9550 ca         1 BM2      -0.120000
     29 C6          -2.4160     3.1760     1.4510 ca         1 BM2      -0.117000
     30 C5          -1.7220     3.9250     0.5410 ca         1 BM2      -0.086000
     31 C4          -1.7240     3.5760    -0.8260 ca         1 BM2      -0.120000
     32 C3          -2.4220     2.4830    -1.2590 ca         1 BM2      -0.077000
     33 C9          -3.1430     1.6860    -0.3390 ca         1 BM2      -0.066000
     34 C10         -3.1410     2.0360     1.0360 ca         1 BM2       0.002000
     35 H291         4.2670     1.2950    -1.3720 hc         1 BM2       0.058200
     36 H292         4.1570     1.8740     0.2700 hc         1 BM2       0.058200
     37 H301         6.1450     0.4680     0.9000 hc         1 BM2       0.059700
     38 H302         6.2640    -0.0880    -0.7600 hc         1 BM2       0.059700
     39 H311         6.5390     2.3170    -1.5020 h1         1 BM2       0.049200
     40 H312         6.4950     2.8090     0.1800 h1         1 BM2       0.049200
     41 HN2          8.4880     0.8280    -0.6720 hn         1 BM2       0.464000
     42 HN5          9.4980     4.5870    -0.3090 hn         1 BM2       0.380400
     43 HN41        10.6030     1.3740    -0.5980 hn         1 BM2       0.453000
     44 HN42        11.0790     2.9740    -0.6620 hn         1 BM2       0.453000
     45 HN6          2.1780     0.5590    -1.1990 hn         1 BM2       0.311500
     46 H251         1.7230    -1.9310     0.3380 h1         1 BM2       0.076700
     47 H252         0.9230    -1.4890    -1.1650 h1         1 BM2       0.076700
     48 H24         -0.2320     0.3900    -0.0210 h1         1 BM2       0.064700
     49 H211        -2.0480    -1.6730     2.6660 h1         1 BM2       0.050700
     50 H212        -0.4150    -2.3340     2.7430 h1         1 BM2       0.050700
     51 H221        -1.2510     0.5950     2.7750 hc         1 BM2       0.058700
     52 H222        -0.1830    -0.2170     3.9260 hc         1 BM2       0.058700
     53 H231         0.9520     1.1570     1.8850 hc         1 BM2       0.063700
     54 H232         1.5620    -0.4490     2.2620 hc         1 BM2       0.063700
     55 HN4         -3.5030    -2.7020    -1.5420 hn         1 BM2       0.512000
     56 H15         -3.2530    -2.4980     1.3640 h1         1 BM2       0.078700
     57 H161        -1.5780    -4.1790     1.4730 h1         1 BM2       0.034200
     58 H162        -3.0950    -4.8520     0.8730 h1         1 BM2       0.034200
     59 HO7         -1.2760    -5.4820    -0.4420 ho         1 BM2       0.450000
     60 H8          -5.0220    -0.5210     2.2570 ha         1 BM2       0.140000
     61 H7          -3.8590     1.5020     3.0020 ha         1 BM2       0.117000
     62 H6          -2.4130     3.4450     2.5010 ha         1 BM2       0.118000
     63 H5          -1.1650     4.7930     0.8690 ha         1 BM2       0.117000
     64 H4          -1.1660     4.1780    -1.5310 ha         1 BM2       0.118000
     65 H3          -2.4240     2.2100    -2.3060 ha         1 BM2       0.123000
     66 S11         -5.1620    -1.7960    -0.3470 sy         1 BM2       1.135600
     67 H2          -3.8200     0.2570    -1.8010 ha         1 BM2       0.138000
@<TRIPOS>BOND
     1     1     2 2   
     2     1     3 1   
     3     1    10 1   
     4     3     4 1   
     5     3    35 1   
     6     3    36 1   
     7     4     5 1   
     8     4    37 1   
     9     4    38 1   
    10     5     6 1   
    11     5    39 1   
    12     5    40 1   
    13     6     7 1   
    14     6    41 1   
    15     7     8 2   
    16     7     9 1   
    17     8    42 1   
    18     9    43 1   
    19     9    44 1   
    20    10    11 1   
    21    10    45 1   
    22    11    12 1   
    23    11    46 1   
    24    11    47 1   
    25    12    13 1   
    26    12    16 1   
    27    12    48 1   
    28    13    14 1   
    29    13    19 1   
    30    14    15 1   
    31    14    49 1   
    32    14    50 1   
    33    15    16 1   
    34    15    51 1   
    35    15    52 1   
    36    16    53 1   
    37    16    54 1   
    38    17    18 1   
    39    17    55 1   
    40    17    66 1   
    41    18    19 1   
    42    18    21 1   
    43    18    56 1   
    44    19    20 2   
    45    21    22 1   
    46    21    57 1   
    47    21    58 1   
    48    22    59 1   
    49    23    66 2   
    50    24    66 2   
    51    25    26 ar  
    52    25    33 ar  
    53    25    67 1   
    54    26    27 ar  
    55    26    66 1   
    56    27    28 ar  
    57    27    60 1   
    58    28    34 ar  
    59    28    61 1   
    60    29    30 ar  
    61    29    34 ar  
    62    29    62 1   
    63    30    31 ar  
    64    30    63 1   
    65    31    32 ar  
    66    31    64 1   
    67    32    33 ar  
    68    32    65 1   
    69    33    34 ar  
@<TRIPOS>SUBSTRUCTURE
     1 BM2         1 TEMP              0 ****  ****    0 ROOT
