@<TRIPOS>MOLECULE
BM2
   67    69     1     0     0
SMALL
No Charge or Current Charge


@<TRIPOS>ATOM
      1 C27          3.8290     0.4120     0.7520 c          1 BM2       0.601100
      2 O28          3.9250    -0.2380     1.7820 o          1 BM2      -0.604100
      3 C29          4.8510     1.4830     0.3580 c3         1 BM2      -0.157400
      4 C30          6.1760     0.8510    -0.1370 c3         1 BM2      -0.080400
      5 C31          7.2310     1.9010    -0.5390 c3         1 BM2       0.221800
      6 N32          8.4580     1.2440    -1.0110 nu         1 BM2      -0.900400
      7 C33          9.5240     1.8950    -1.4450 c2         1 BM2       0.797100
      8 N35          9.6510     3.1330    -1.4720 n2         1 BM2      -0.900100
      9 N34         10.4210     0.9860    -1.7210 nv         1 BM2      -1.069200
     10 N26          2.7780     0.2590    -0.1250 ns         1 BM2      -0.509900
     11 C25          1.6500    -0.6670     0.0610 c3         1 BM2       0.090000
     12 C24          0.3790    -0.0080     0.6630 c5         1 BM2       0.086700
     13 N20         -0.7370    -0.9600     0.9140 n          1 BM2      -0.399800
     14 C21         -1.3790    -0.7360     2.2340 c5         1 BM2       0.101000
     15 C22         -0.7980     0.6340     2.6570 c5         1 BM2      -0.097400
     16 C23          0.6330     0.5430     2.0950 c5         1 BM2      -0.092400
     17 N14         -3.4080    -3.0940    -0.9120 n7         1 BM2      -0.831300
     18 C15         -2.4850    -2.7170     0.2160 c3         1 BM2       0.132500
     19 C18         -1.4000    -1.6360    -0.1410 c          1 BM2       0.588100
     20 O19         -1.0810    -1.4180    -1.3060 o          1 BM2      -0.613100
     21 C16         -1.7810    -3.9830     0.7710 c3         1 BM2       0.174600
     22 O17         -1.0030    -4.6360    -0.2490 oh         1 BM2      -0.647000
     23 O13         -3.8770    -1.6080    -2.8570 o          1 BM2      -0.530500
     24 O12         -5.7940    -2.6220    -1.4870 o          1 BM2      -0.530500
     25 C2          -3.5940     0.5240    -0.7480 ca         1 BM2       0.034000
     26 C1          -4.3940    -0.5950    -0.4380 ca         1 BM2      -0.313500
     27 C8          -5.1390    -0.6140     0.7600 ca         1 BM2      -0.040000
     28 C7          -5.0590     0.4670     1.6540 ca         1 BM2      -0.120000
     29 C6          -4.1520     2.6500     2.2600 ca         1 BM2      -0.117000
     30 C5          -3.3320     3.7520     1.9630 ca         1 BM2      -0.086000
     31 C4          -2.6000     3.7810     0.7630 ca         1 BM2      -0.120000
     32 C3          -2.6880     2.7090    -0.1420 ca         1 BM2      -0.077000
     33 C9          -3.5090     1.6030     0.1520 ca         1 BM2      -0.066000
     34 C10         -4.2430     1.5730     1.3580 ca         1 BM2       0.002000
     35 H291         4.4450     2.1120    -0.4440 hc         1 BM2       0.058200
     36 H292         5.0680     2.0990     1.2380 hc         1 BM2       0.058200
     37 H301         6.5870     0.2110     0.6540 hc         1 BM2       0.059700
     38 H302         5.9650     0.2040    -0.9980 hc         1 BM2       0.059700
     39 H311         6.8190     2.5400    -1.3330 h1         1 BM2       0.049200
     40 H312         7.4540     2.5400     0.3270 h1         1 BM2       0.049200
     41 HN2          8.7110     0.3790    -0.5530 hn         1 BM2       0.464000
     42 HN5         10.6020     3.3430    -1.7910 hn         1 BM2       0.380400
     43 HN41         9.9960     0.1930    -2.1800 hn         1 BM2       0.453000
     44 HN42        11.2240     1.3500    -2.2140 hn         1 BM2       0.453000
     45 HN6          2.7880     0.8460    -0.9520 hn         1 BM2       0.311500
     46 H251         1.9610    -1.4990     0.7070 h1         1 BM2       0.076700
     47 H252         1.4040    -1.0950    -0.9190 h1         1 BM2       0.076700
     48 H24          0.0420     0.7950    -0.0080 h1         1 BM2       0.064700
     49 H211        -2.4730    -0.6880     2.1810 h1         1 BM2       0.050700
     50 H212        -1.0950    -1.5290     2.9400 h1         1 BM2       0.050700
     51 H221        -1.3510     1.4600     2.1970 hc         1 BM2       0.058700
     52 H222        -0.8250     0.7840     3.7420 hc         1 BM2       0.058700
     53 H231         1.1450     1.5120     2.0870 hc         1 BM2       0.063700
     54 H232         1.2430    -0.1450     2.6930 hc         1 BM2       0.063700
     55 HN4         -2.8340    -3.3100    -1.7280 hn         1 BM2       0.512000
     56 H15         -3.0850    -2.3270     1.0450 h1         1 BM2       0.078700
     57 H161        -1.1410    -3.7010     1.6180 h1         1 BM2       0.034200
     58 H162        -2.5480    -4.6700     1.1550 h1         1 BM2       0.034200
     59 HO7         -0.6790    -5.4820     0.1330 ho         1 BM2       0.450000
     60 H8          -5.7690    -1.4680     1.0060 ha         1 BM2       0.140000
     61 H7          -5.6300     0.4400     2.5790 ha         1 BM2       0.117000
     62 H6          -4.7150     2.6340     3.1910 ha         1 BM2       0.118000
     63 H5          -3.2620     4.5820     2.6630 ha         1 BM2       0.117000
     64 H4          -1.9650     4.6340     0.5350 ha         1 BM2       0.118000
     65 H3          -2.1160     2.7390    -1.0670 ha         1 BM2       0.123000
     66 S11         -4.4750    -1.9910    -1.5780 sy         1 BM2       1.135600
     67 H2          -3.0240     0.5550    -1.6750 ha         1 BM2       0.138000
@<TRIPOS>BOND
     1     1     2 2   
     2     1     3 1   
     3     1    10 1   
     4     3     4 1   
     5     3    35 1   
     6     3    36 1   
     7     4     5 1   
     8     4    37 1   
     9     4    38 1   
    10     5     6 1   
    11     5    39 1   
    12     5    40 1   
    13     6     7 1   
    14     6    41 1   
    15     7     8 2   
    16     7     9 1   
    17     8    42 1   
    18     9    43 1   
    19     9    44 1   
    20    10    11 1   
    21    10    45 1   
    22    11    12 1   
    23    11    46 1   
    24    11    47 1   
    25    12    13 1   
    26    12    16 1   
    27    12    48 1   
    28    13    14 1   
    29    13    19 1   
    30    14    15 1   
    31    14    49 1   
    32    14    50 1   
    33    15    16 1   
    34    15    51 1   
    35    15    52 1   
    36    16    53 1   
    37    16    54 1   
    38    17    18 1   
    39    17    55 1   
    40    17    66 1   
    41    18    19 1   
    42    18    21 1   
    43    18    56 1   
    44    19    20 2   
    45    21    22 1   
    46    21    57 1   
    47    21    58 1   
    48    22    59 1   
    49    23    66 2   
    50    24    66 2   
    51    25    26 ar  
    52    25    33 ar  
    53    25    67 1   
    54    26    27 ar  
    55    26    66 1   
    56    27    28 ar  
    57    27    60 1   
    58    28    34 ar  
    59    28    61 1   
    60    29    30 ar  
    61    29    34 ar  
    62    29    62 1   
    63    30    31 ar  
    64    30    63 1   
    65    31    32 ar  
    66    31    64 1   
    67    32    33 ar  
    68    32    65 1   
    69    33    34 ar  
@<TRIPOS>SUBSTRUCTURE
     1 BM2         1 TEMP              0 ****  ****    0 ROOT
