@<TRIPOS>MOLECULE
BM3
   30    30     1     0     0
SMALL
No Charge or Current Charge


@<TRIPOS>ATOM
      1 C1           2.2150     0.0370    -1.7510 c6         1 BM3       0.367300
      2 O1           1.0720    -0.3980    -2.4810 oh         1 BM3      -0.676000
      3 C2           2.1340    -0.3680    -0.2390 c6         1 BM3       0.105700
      4 N2           3.4170    -0.1410     0.4720 ns         1 BM3      -0.495900
      5 C7           4.5620    -0.8780     0.3010 c          1 BM3       0.602100
      6 O7           4.6380    -1.7840    -0.5140 o          1 BM3      -0.611100
      7 C8           5.7240    -0.4770     1.1980 c3         1 BM3      -0.177100
      8 C3           0.9610     0.4060     0.4450 c6         1 BM3       0.131300
      9 O3           0.9230     0.1580     1.8620 oh         1 BM3      -0.647000
     10 C4           1.0780     1.9420     0.1990 c6         1 BM3       0.099300
     11 O4          -0.0430     2.6340     0.7950 oh         1 BM3      -0.713000
     12 C5           1.1900     2.2280    -1.3280 c6         1 BM3       0.098300
     13 C6           1.4620     3.7300    -1.6370 c3         1 BM3       0.169600
     14 O6           1.9520     3.8880    -2.9760 oh         1 BM3      -0.712000
     15 O5           2.2950     1.4710    -1.9010 os         1 BM3      -0.490000
     16 H1           3.1190    -0.4190    -2.1860 h2         1 BM3       0.090700
     17 HA           1.1840    -0.0160    -3.3770 ho         1 BM3       0.463000
     18 H2           1.9100    -1.4430    -0.1910 h1         1 BM3       0.107700
     19 HB           3.4370     0.5610     1.2020 hn         1 BM3       0.322500
     20 H3           0.0220     0.0600    -0.0110 h1         1 BM3       0.053700
     21 H8C1         5.3990    -0.5190     2.2440 hc         1 BM3       0.061700
     22 H8C2         6.6190    -1.0870     1.0270 hc         1 BM3       0.061700
     23 H8C3         5.9300     0.5910     1.0600 hc         1 BM3       0.061700
     24 HC           0.4210     0.9150     2.2430 ho         1 BM3       0.458000
     25 H4           2.0130     2.2890     0.6660 h1         1 BM3       0.086700
     26 HD          -0.8550     2.3830     0.2950 ho         1 BM3       0.505000
     27 H5           0.2560     1.9400    -1.8310 h1         1 BM3       0.057700
     28 H6C1         2.2060     4.1040    -0.9180 h1         1 BM3       0.054700
     29 H6C2         0.5380     4.3040    -1.4850 h1         1 BM3       0.054700
     30 H6           2.4460     3.0480    -3.1390 ho         1 BM3       0.512000
@<TRIPOS>BOND
     1     1     2 1   
     2     1     3 1   
     3     1    15 1   
     4     1    16 1   
     5     2    17 1   
     6     3     4 1   
     7     3     8 1   
     8     3    18 1   
     9     4     5 1   
    10     4    19 1   
    11     5     6 2   
    12     5     7 1   
    13     7    21 1   
    14     7    22 1   
    15     7    23 1   
    16     8     9 1   
    17     8    10 1   
    18     8    20 1   
    19     9    24 1   
    20    10    11 1   
    21    10    12 1   
    22    10    25 1   
    23    11    26 1   
    24    12    13 1   
    25    12    15 1   
    26    12    27 1   
    27    13    14 1   
    28    13    28 1   
    29    13    29 1   
    30    14    30 1   
@<TRIPOS>SUBSTRUCTURE
     1 BM3         1 TEMP              0 ****  ****    0 ROOT
