@<TRIPOS>MOLECULE
BM3
   30    30     1     0     0
SMALL
abcg2


@<TRIPOS>ATOM
      1 C1           2.2250     0.0660    -1.7120 c6         1 BM3       0.367300
      2 O1           1.1080    -0.4660    -2.3460 oh         1 BM3      -0.676000
      3 C2           2.1370    -0.3060    -0.2270 c6         1 BM3       0.105700
      4 N2           3.3930    -0.0300     0.4340 ns         1 BM3      -0.495900
      5 C7           4.4180    -0.9010     0.4380 c          1 BM3       0.602100
      6 O7           4.3790    -1.9690    -0.1600 o          1 BM3      -0.611100
      7 C8           5.6250    -0.4780     1.2350 c3         1 BM3      -0.177100
      8 C3           0.9940     0.4630     0.4320 c6         1 BM3       0.131300
      9 O3           0.9990     0.1730     1.8060 oh         1 BM3      -0.647000
     10 C4           1.1100     1.9640     0.1600 c6         1 BM3       0.099300
     11 O4           0.0180     2.6630     0.7140 oh         1 BM3      -0.713000
     12 C5           1.2510     2.2160    -1.3430 c6         1 BM3       0.098300
     13 C6           1.5540     3.6730    -1.6530 c3         1 BM3       0.169600
     14 O6           1.6090     3.9360    -3.0330 oh         1 BM3      -0.712000
     15 O5           2.3300     1.4570    -1.8670 os         1 BM3      -0.490000
     16 H1           3.1520    -0.3320    -2.1370 h2         1 BM3       0.090700
     17 HA           1.2190    -0.3880    -3.3000 ho         1 BM3       0.463000
     18 H2           1.9400    -1.3780    -0.1510 h1         1 BM3       0.107700
     19 HB           3.4900     0.8160     0.9710 hn         1 BM3       0.322500
     20 H3           0.0600     0.1170    -0.0370 h1         1 BM3       0.053700
     21 H8C1         5.8070    -1.2070     2.0250 hc         1 BM3       0.061700
     22 H8C2         6.5030    -0.4740     0.5900 hc         1 BM3       0.061700
     23 H8C3         5.5270     0.5050     1.6920 hc         1 BM3       0.061700
     24 HC           0.2840     0.6700     2.2170 ho         1 BM3       0.458000
     25 H4           1.9930     2.3660     0.6710 h1         1 BM3       0.086700
     26 HD          -0.7890     2.3940     0.2580 ho         1 BM3       0.505000
     27 H5           0.3110     1.9350    -1.8410 h1         1 BM3       0.057700
     28 H6C1         2.4860     3.9580    -1.1450 h1         1 BM3       0.054700
     29 H6C2         0.7590     4.2940    -1.2400 h1         1 BM3       0.054700
     30 H6           2.3320     3.4230    -3.4070 ho         1 BM3       0.512000
@<TRIPOS>BOND
     1     1     2 1   
     2     1     3 1   
     3     1    15 1   
     4     1    16 1   
     5     2    17 1   
     6     3     4 1   
     7     3     8 1   
     8     3    18 1   
     9     4     5 1   
    10     4    19 1   
    11     5     6 2   
    12     5     7 1   
    13     7    21 1   
    14     7    22 1   
    15     7    23 1   
    16     8     9 1   
    17     8    10 1   
    18     8    20 1   
    19     9    24 1   
    20    10    11 1   
    21    10    12 1   
    22    10    25 1   
    23    11    26 1   
    24    12    13 1   
    25    12    15 1   
    26    12    27 1   
    27    13    14 1   
    28    13    28 1   
    29    13    29 1   
    30    14    30 1   
@<TRIPOS>SUBSTRUCTURE
     1 BM3         1 TEMP              0 ****  ****    0 ROOT
