@<TRIPOS>MOLECULE
BM5
   38    41     1     0     0
SMALL
No Charge or Current Charge


@<TRIPOS>ATOM
      1 S1           0.3140     2.0550     0.3800 ss         1 BM5      -0.382000
      2 C2           1.2960     1.1250     1.6570 c5         1 BM5       0.042600
      3 C3           0.4720    -0.1800     1.8970 c5         1 BM5       0.063700
      4 C5           0.1690     0.4700    -0.5480 c5         1 BM5       0.350000
      5 N4          -0.1540    -0.4550     0.5640 n          1 BM5      -0.403800
      6 C6          -1.2880    -1.2430     0.3600 c          1 BM5       0.593600
      7 OE          -1.7340    -2.0960     1.1150 o          1 BM5      -0.509000
      8 C7          -1.8610    -0.7810    -0.9190 ca         1 BM5      -0.150600
      9 C12         -1.0670     0.2470    -1.4120 ca         1 BM5      -0.054300
     10 C8          -3.0290    -1.2010    -1.5710 ca         1 BM5      -0.036000
     11 C9          -3.3850    -0.5540    -2.7720 ca         1 BM5      -0.116000
     12 C10         -2.5800     0.4880    -3.2880 ca         1 BM5      -0.086000
     13 C11         -1.4110     0.8930    -2.6100 ca         1 BM5      -0.084000
     14 C13          1.4670    -0.0050    -1.2290 ca         1 BM5      -0.093300
     15 C14          2.3360     0.9370    -1.8250 ca         1 BM5      -0.086500
     16 C15          3.5190     0.5260    -2.4640 ca         1 BM5      -0.114500
     17 C16          3.8490    -0.8360    -2.5270 ca         1 BM5      -0.100000
     18 C17          2.9890    -1.7870    -1.9560 ca         1 BM5      -0.114500
     19 C18          1.8060    -1.3770    -1.3170 ca         1 BM5      -0.086500
     20 CA          -0.5240     0.1050     3.0600 c          1 BM5       0.578100
     21 OB          -1.7080     0.4050     2.9580 o          1 BM5      -0.453000
     22 OC           0.1210    -0.0400     4.2640 os         1 BM5      -0.439100
     23 CD          -0.6340     0.1790     5.4710 c3         1 BM5       0.151900
     24 H21          1.4330     1.7220     2.5690 h1         1 BM5       0.088700
     25 H22          2.2900     0.8940     1.2520 h1         1 BM5       0.088700
     26 H3           1.1200    -1.0060     2.2140 h1         1 BM5       0.102700
     27 H81         -3.6460    -1.9980    -1.1590 ha         1 BM5       0.136000
     28 H91         -4.2850    -0.8570    -3.3030 ha         1 BM5       0.120000
     29 H101        -2.8620     0.9790    -4.2170 ha         1 BM5       0.117000
     30 H111        -0.7840     1.6860    -3.0110 ha         1 BM5       0.126000
     31 H141         2.0960     1.9970    -1.8000 ha         1 BM5       0.125500
     32 H151         4.1780     1.2650    -2.9130 ha         1 BM5       0.115500
     33 H161         4.7640    -1.1540    -3.0220 ha         1 BM5       0.115000
     34 H171         3.2370    -2.8450    -2.0110 ha         1 BM5       0.115500
     35 H181         1.1550    -2.1380    -0.8950 ha         1 BM5       0.125500
     36 HD1          0.0020     0.0300     6.3520 h1         1 BM5       0.051033
     37 HD2         -1.0290     1.2030     5.5060 h1         1 BM5       0.051033
     38 HD3         -1.4770    -0.5220     5.5390 h1         1 BM5       0.051033
@<TRIPOS>BOND
     1     1     2 1   
     2     1     4 1   
     3     2     3 1   
     4     2    24 1   
     5     2    25 1   
     6     3     5 1   
     7     3    20 1   
     8     3    26 1   
     9     4     5 1   
    10     4     9 1   
    11     4    14 1   
    12     5     6 1   
    13     6     7 2   
    14     6     8 1   
    15     8     9 ar  
    16     8    10 ar  
    17     9    13 ar  
    18    10    11 ar  
    19    10    27 1   
    20    11    12 ar  
    21    11    28 1   
    22    12    13 ar  
    23    12    29 1   
    24    13    30 1   
    25    14    15 ar  
    26    14    19 ar  
    27    15    16 ar  
    28    15    31 1   
    29    16    17 ar  
    30    16    32 1   
    31    17    18 ar  
    32    17    33 1   
    33    18    19 ar  
    34    18    34 1   
    35    19    35 1   
    36    20    21 2   
    37    20    22 1   
    38    22    23 1   
    39    23    36 1   
    40    23    37 1   
    41    23    38 1   
@<TRIPOS>SUBSTRUCTURE
     1 BM5         1 TEMP              0 ****  ****    0 ROOT
