@<TRIPOS>MOLECULE
BM5
   38    41     1     0     0
SMALL
abcg2


@<TRIPOS>ATOM
      1 S1           0.4530     2.0090     0.3500 ss         1 BM5      -0.382000
      2 C2           1.3480     1.1380     1.6670 c5         1 BM5       0.042600
      3 C3           0.5550    -0.1640     1.9170 c5         1 BM5       0.063700
      4 C5           0.2580     0.3820    -0.4620 c5         1 BM5       0.350000
      5 N4          -0.0450    -0.4980     0.6480 n          1 BM5      -0.403800
      6 C6          -1.2340    -1.1600     0.5110 c          1 BM5       0.593600
      7 OE          -1.7040    -1.9280     1.3240 o          1 BM5      -0.509000
      8 C7          -1.7970    -0.7170    -0.7780 ca         1 BM5      -0.150600
      9 C12         -0.9600     0.2390    -1.3320 ca         1 BM5      -0.054300
     10 C8          -2.9810    -1.0910    -1.3900 ca         1 BM5      -0.036000
     11 C9          -3.3110    -0.4760    -2.5890 ca         1 BM5      -0.116000
     12 C10         -2.4670     0.4820    -3.1500 ca         1 BM5      -0.086000
     13 C11         -1.2740     0.8460    -2.5340 ca         1 BM5      -0.084000
     14 C13          1.5180    -0.0290    -1.2090 ca         1 BM5      -0.093300
     15 C14          2.1610     0.8750    -2.0490 ca         1 BM5      -0.086500
     16 C15          3.2710     0.4870    -2.7840 ca         1 BM5      -0.114500
     17 C16          3.7570    -0.8110    -2.6840 ca         1 BM5      -0.100000
     18 C17          3.1200    -1.7160    -1.8490 ca         1 BM5      -0.114500
     19 C18          2.0030    -1.3290    -1.1180 ca         1 BM5      -0.086500
     20 CA          -0.5070     0.1150     2.9720 c          1 BM5       0.578100
     21 OB          -1.5360     0.6980     2.7590 o          1 BM5      -0.453000
     22 OC          -0.1020    -0.2950     4.1600 os         1 BM5      -0.439100
     23 CD          -0.9420    -0.0030     5.2800 c3         1 BM5       0.151900
     24 H21          1.4180     1.7700     2.5510 h1         1 BM5       0.088700
     25 H22          2.3600     0.9030     1.3380 h1         1 BM5       0.088700
     26 H3           1.2350    -0.9440     2.2650 h1         1 BM5       0.102700
     27 H81         -3.6280    -1.8370    -0.9460 ha         1 BM5       0.136000
     28 H91         -4.2290    -0.7400    -3.0960 ha         1 BM5       0.120000
     29 H101        -2.7440     0.9510    -4.0850 ha         1 BM5       0.117000
     30 H111        -0.6260     1.5840    -2.9870 ha         1 BM5       0.126000
     31 H141         1.8080     1.8960    -2.1240 ha         1 BM5       0.125500
     32 H151         3.7600     1.2010    -3.4330 ha         1 BM5       0.115500
     33 H161         4.6290    -1.1110    -3.2510 ha         1 BM5       0.115000
     34 H171         3.4900    -2.7290    -1.7600 ha         1 BM5       0.115500
     35 H181         1.5180    -2.0500    -0.4740 ha         1 BM5       0.125500
     36 HD1         -0.4420    -0.4280     6.1450 h1         1 BM5       0.051033
     37 HD2         -1.0570     1.0710     5.4170 h1         1 BM5       0.051033
     38 HD3         -1.9240    -0.4620     5.1660 h1         1 BM5       0.051033
@<TRIPOS>BOND
     1     1     2 1   
     2     1     4 1   
     3     2     3 1   
     4     2    24 1   
     5     2    25 1   
     6     3     5 1   
     7     3    20 1   
     8     3    26 1   
     9     4     5 1   
    10     4     9 1   
    11     4    14 1   
    12     5     6 1   
    13     6     7 2   
    14     6     8 1   
    15     8     9 ar  
    16     8    10 ar  
    17     9    13 ar  
    18    10    11 ar  
    19    10    27 1   
    20    11    12 ar  
    21    11    28 1   
    22    12    13 ar  
    23    12    29 1   
    24    13    30 1   
    25    14    15 ar  
    26    14    19 ar  
    27    15    16 ar  
    28    15    31 1   
    29    16    17 ar  
    30    16    32 1   
    31    17    18 ar  
    32    17    33 1   
    33    18    19 ar  
    34    18    34 1   
    35    19    35 1   
    36    20    21 2   
    37    20    22 1   
    38    22    23 1   
    39    23    36 1   
    40    23    37 1   
    41    23    38 1   
@<TRIPOS>SUBSTRUCTURE
     1 BM5         1 TEMP              0 ****  ****    0 ROOT
