@<TRIPOS>MOLECULE
BM6
   55    58     1     0     0
SMALL
abcg2


@<TRIPOS>ATOM
      1 O1           5.3760     2.5310     1.3010 o          1 BM6      -0.719500
      2 O2           5.7840     2.2450    -0.8710 o          1 BM6      -0.719500
      3 O3           1.0140    -2.8280    -1.1100 os         1 BM6      -0.459000
      4 O4           0.6710    -2.6070     1.0680 os         1 BM6      -0.459000
      5 C1           5.1650     2.0160     0.1870 c          1 BM6       0.711600
      6 C2           4.0320     1.0010     0.1080 ca         1 BM6      -0.119600
      7 C3           3.3020     0.6530     1.2420 ca         1 BM6      -0.097000
      8 C4           2.2740    -0.2750     1.1750 ca         1 BM6      -0.117000
      9 C5           1.9460    -0.8810    -0.0340 ca         1 BM6      -0.177300
     10 C6           2.6670    -0.5340    -1.1720 ca         1 BM6      -0.117000
     11 C7           3.6970     0.3910    -1.0970 ca         1 BM6      -0.097000
     12 C8           0.7860    -1.8700    -0.1160 c5         1 BM6       0.483600
     13 C9          -0.5010    -1.1340    -0.3930 ca         1 BM6      -0.055300
     14 C10         -0.9320    -0.9160    -1.6970 ca         1 BM6      -0.078000
     15 C11         -2.0970    -0.2050    -1.9170 ca         1 BM6      -0.123000
     16 C12         -2.8680     0.3180    -0.8750 ca         1 BM6      -0.062300
     17 C13         -2.4130     0.1330     0.4370 ca         1 BM6      -0.069300
     18 C14         -1.2440    -0.6030     0.6470 ca         1 BM6      -0.077000
     19 C15         -3.1480     0.6830     1.6540 c6         1 BM6       0.004300
     20 C16         -4.1550     1.7520     1.2200 c6         1 BM6      -0.066400
     21 C17         -4.9860     1.3120     0.0330 c6         1 BM6      -0.065400
     22 C18         -4.1380     1.0870    -1.2230 c6         1 BM6       0.004300
     23 C19          1.8640    -3.8050    -0.5320 c5         1 BM6       0.125600
     24 C20          1.6410    -3.6380     0.9830 c5         1 BM6       0.125600
     25 C21         -2.1740     1.3390     2.6410 c3         1 BM6      -0.081100
     26 C22         -3.8750    -0.4660     2.3660 c3         1 BM6      -0.081100
     27 C23         -4.9920     0.3060    -2.2280 c3         1 BM6      -0.079100
     28 C24         -3.7500     2.4370    -1.8440 c3         1 BM6      -0.079100
     29 H3           3.5450     1.1110     2.1920 ha         1 BM6       0.127500
     30 H4           1.7310    -0.5290     2.0770 ha         1 BM6       0.095500
     31 H6           2.4310    -0.9900    -2.1250 ha         1 BM6       0.095500
     32 H7           4.2530     0.6420    -1.9920 ha         1 BM6       0.127500
     33 H10         -0.3750    -1.2960    -2.5420 ha         1 BM6       0.124000
     34 H11         -2.4110    -0.0540    -2.9420 ha         1 BM6       0.102000
     35 H14         -0.9070    -0.7610     1.6640 ha         1 BM6       0.124000
     36 H161        -3.6190     2.6740     0.9760 hc         1 BM6       0.039200
     37 H162        -4.8010     1.9930     2.0700 hc         1 BM6       0.039200
     38 H171        -5.7600     2.0540    -0.1850 hc         1 BM6       0.035200
     39 H172        -5.5160     0.3860     0.2790 hc         1 BM6       0.035200
     40 H191         2.9100    -3.6340    -0.8010 h1         1 BM6       0.051200
     41 H192         1.5650    -4.7850    -0.9040 h1         1 BM6       0.051200
     42 H201         2.5670    -3.3560     1.4920 h1         1 BM6       0.051200
     43 H202         1.2400    -4.5320     1.4590 h1         1 BM6       0.051200
     44 H211        -2.7360     1.8620     3.4170 hc         1 BM6       0.034200
     45 H212        -1.5300     0.6180     3.1460 hc         1 BM6       0.034200
     46 H213        -1.5330     2.0680     2.1420 hc         1 BM6       0.034200
     47 H221        -4.6090    -0.9490     1.7210 hc         1 BM6       0.034200
     48 H222        -3.1730    -1.2350     2.6960 hc         1 BM6       0.034200
     49 H223        -4.3980    -0.0940     3.2510 hc         1 BM6       0.034200
     50 H231        -4.4980     0.1720    -3.1910 hc         1 BM6       0.032033
     51 H232        -5.2480    -0.6810    -1.8410 hc         1 BM6       0.032033
     52 H233        -5.9240     0.8420    -2.4200 hc         1 BM6       0.032033
     53 H241        -4.6440     2.9910    -2.1420 hc         1 BM6       0.032033
     54 H242        -3.1840     3.0600    -1.1510 hc         1 BM6       0.032033
     55 H243        -3.1360     2.3020    -2.7360 hc         1 BM6       0.032033
@<TRIPOS>BOND
     1     1     5 1   
     2     2     5 1   
     3     3    12 1   
     4     3    23 1   
     5     4    12 1   
     6     4    24 1   
     7     5     6 1   
     8     6     7 ar  
     9     6    11 ar  
    10     7     8 ar  
    11     7    29 1   
    12     8     9 ar  
    13     8    30 1   
    14     9    10 ar  
    15     9    12 1   
    16    10    11 ar  
    17    10    31 1   
    18    11    32 1   
    19    12    13 1   
    20    13    14 ar  
    21    13    18 ar  
    22    14    15 ar  
    23    14    33 1   
    24    15    16 ar  
    25    15    34 1   
    26    16    17 ar  
    27    16    22 1   
    28    17    18 ar  
    29    17    19 1   
    30    18    35 1   
    31    19    20 1   
    32    19    25 1   
    33    19    26 1   
    34    20    21 1   
    35    20    36 1   
    36    20    37 1   
    37    21    22 1   
    38    21    38 1   
    39    21    39 1   
    40    22    27 1   
    41    22    28 1   
    42    23    24 1   
    43    23    40 1   
    44    23    41 1   
    45    24    42 1   
    46    24    43 1   
    47    25    44 1   
    48    25    45 1   
    49    25    46 1   
    50    26    47 1   
    51    26    48 1   
    52    26    49 1   
    53    27    50 1   
    54    27    51 1   
    55    27    52 1   
    56    28    53 1   
    57    28    54 1   
    58    28    55 1   
@<TRIPOS>SUBSTRUCTURE
     1 BM6         1 TEMP              0 ****  ****    0 ROOT
