@<TRIPOS>MOLECULE
BM6
   55    58     1     0     0
SMALL
No Charge or Current Charge


@<TRIPOS>ATOM
      1 O1           5.6340     2.3380     1.4380 o          1 BM6      -0.719500
      2 O2           5.9790     2.2000    -0.6770 o          1 BM6      -0.719500
      3 O3           1.0520    -2.8530    -1.1910 os         1 BM6      -0.459000
      4 O4           0.6740    -2.6910     1.0080 os         1 BM6      -0.459000
      5 C1           5.3570     1.8960     0.3310 c          1 BM6       0.711600
      6 C2           4.1890     0.9270     0.2040 ca         1 BM6      -0.119600
      7 C3           3.4340     0.5460     1.3370 ca         1 BM6      -0.097000
      8 C4           2.3570    -0.3490     1.2170 ca         1 BM6      -0.117000
      9 C5           2.0050    -0.8990    -0.0340 ca         1 BM6      -0.177300
     10 C6           2.7490    -0.5080    -1.1670 ca         1 BM6      -0.117000
     11 C7           3.8270     0.3870    -1.0510 ca         1 BM6      -0.097000
     12 C8           0.8100    -1.8670    -0.1670 c5         1 BM6       0.483600
     13 C9          -0.4980    -1.1100    -0.4400 ca         1 BM6      -0.055300
     14 C10         -0.9580    -0.9010    -1.7520 ca         1 BM6      -0.078000
     15 C11         -2.1520    -0.2060    -1.9870 ca         1 BM6      -0.123000
     16 C12         -2.9230     0.3130    -0.9220 ca         1 BM6      -0.062300
     17 C13         -2.4340     0.1670     0.4080 ca         1 BM6      -0.069300
     18 C14         -1.2430    -0.5660     0.6230 ca         1 BM6      -0.077000
     19 C15         -3.1990     0.7510     1.6570 c6         1 BM6       0.004300
     20 C16         -4.2700     1.7880     1.2160 c6         1 BM6      -0.066400
     21 C17         -5.1110     1.2720     0.0370 c6         1 BM6      -0.065400
     22 C18         -4.2490     1.0570    -1.2400 c6         1 BM6       0.004300
     23 C19          1.9700    -3.8090    -0.6170 c5         1 BM6       0.125600
     24 C20          1.7060    -3.6980     0.9130 c5         1 BM6       0.125600
     25 C21         -2.2030     1.4940     2.6070 c3         1 BM6      -0.081100
     26 C22         -3.8830    -0.3790     2.5380 c3         1 BM6      -0.081100
     27 C23         -5.1180     0.2590    -2.2650 c3         1 BM6      -0.079100
     28 C24         -3.9020     2.4270    -1.9050 c3         1 BM6      -0.079100
     29 H3           3.6790     0.9470     2.3180 ha         1 BM6       0.127500
     30 H4           1.7920    -0.6140     2.1080 ha         1 BM6       0.095500
     31 H6           2.4910    -0.8980    -2.1490 ha         1 BM6       0.095500
     32 H7           4.3800     0.6620    -1.9470 ha         1 BM6       0.127500
     33 H10         -0.3910    -1.2820    -2.5970 ha         1 BM6       0.124000
     34 H11         -2.4690    -0.0710    -3.0170 ha         1 BM6       0.102000
     35 H14         -0.8810    -0.7210     1.6350 ha         1 BM6       0.124000
     36 H161        -3.7880     2.7350     0.9370 hc         1 BM6       0.039200
     37 H162        -4.9310     2.0330     2.0590 hc         1 BM6       0.039200
     38 H171        -5.9240     1.9800    -0.1710 hc         1 BM6       0.035200
     39 H172        -5.6020     0.3320     0.3230 hc         1 BM6       0.035200
     40 H191         3.0010    -3.5270    -0.8700 h1         1 BM6       0.051200
     41 H192         1.7610    -4.8110    -1.0150 h1         1 BM6       0.051200
     42 H201         2.6000    -3.3590     1.4530 h1         1 BM6       0.051200
     43 H202         1.3510    -4.6380     1.3550 h1         1 BM6       0.051200
     44 H211        -2.7360     2.0290     3.4020 hc         1 BM6       0.034200
     45 H212        -1.5030     0.8110     3.1020 hc         1 BM6       0.034200
     46 H213        -1.6090     2.2330     2.0560 hc         1 BM6       0.034200
     47 H221        -4.5920    -0.9730     1.9500 hc         1 BM6       0.034200
     48 H222        -3.1370    -1.0760     2.9380 hc         1 BM6       0.034200
     49 H223        -4.4280     0.0450     3.3910 hc         1 BM6       0.034200
     50 H231        -4.6540     0.1950    -3.2550 hc         1 BM6       0.032033
     51 H232        -5.2970    -0.7660    -1.9170 hc         1 BM6       0.032033
     52 H233        -6.0980     0.7320    -2.4070 hc         1 BM6       0.032033
     53 H241        -4.8040     3.0180    -2.1040 hc         1 BM6       0.032033
     54 H242        -3.2430     3.0310    -1.2710 hc         1 BM6       0.032033
     55 H243        -3.3850     2.2890    -2.8620 hc         1 BM6       0.032033
@<TRIPOS>BOND
     1     1     5 1   
     2     2     5 1   
     3     3    12 1   
     4     3    23 1   
     5     4    12 1   
     6     4    24 1   
     7     5     6 1   
     8     6     7 ar  
     9     6    11 ar  
    10     7     8 ar  
    11     7    29 1   
    12     8     9 ar  
    13     8    30 1   
    14     9    10 ar  
    15     9    12 1   
    16    10    11 ar  
    17    10    31 1   
    18    11    32 1   
    19    12    13 1   
    20    13    14 ar  
    21    13    18 ar  
    22    14    15 ar  
    23    14    33 1   
    24    15    16 ar  
    25    15    34 1   
    26    16    17 ar  
    27    16    22 1   
    28    17    18 ar  
    29    17    19 1   
    30    18    35 1   
    31    19    20 1   
    32    19    25 1   
    33    19    26 1   
    34    20    21 1   
    35    20    36 1   
    36    20    37 1   
    37    21    22 1   
    38    21    38 1   
    39    21    39 1   
    40    22    27 1   
    41    22    28 1   
    42    23    24 1   
    43    23    40 1   
    44    23    41 1   
    45    24    42 1   
    46    24    43 1   
    47    25    44 1   
    48    25    45 1   
    49    25    46 1   
    50    26    47 1   
    51    26    48 1   
    52    26    49 1   
    53    27    50 1   
    54    27    51 1   
    55    27    52 1   
    56    28    53 1   
    57    28    54 1   
    58    28    55 1   
@<TRIPOS>SUBSTRUCTURE
     1 BM6         1 TEMP              0 ****  ****    0 ROOT
