@<TRIPOS>MOLECULE
BM7
   30    30     1     0     0
SMALL
No Charge or Current Charge


@<TRIPOS>ATOM
      1 C1          21.1190    42.2580     3.6300 c6         1 BM7       0.402300
      2 O1          20.9370    43.5100     2.9830 oh         1 BM7      -0.656000
      3 C2          22.6070    41.7660     3.5710 c6         1 BM7       0.044700
      4 N2          23.6060    42.7280     4.1200 ns         1 BM7      -0.483900
      5 C7          23.9820    43.9210     3.5580 c          1 BM7       0.609100
      6 O7          23.4050    44.3750     2.5810 o          1 BM7      -0.626100
      7 C8          25.1320    44.6360     4.2480 c3         1 BM7      -0.174100
      8 C3          22.6670    40.4150     4.3470 c6         1 BM7       0.157300
      9 O3          24.0080    39.9020     4.4020 oh         1 BM7      -0.667000
     10 C4          22.1170    40.5710     5.8010 c6         1 BM7       0.094300
     11 O4          22.1340    39.2860     6.4650 oh         1 BM7      -0.725000
     12 C5          20.6830    41.1960     5.7540 c6         1 BM7       0.157300
     13 C6          20.1060    41.5070     7.1760 c3         1 BM7       0.173600
     14 O6          18.8050    42.1240     7.1430 oh         1 BM7      -0.697000
     15 O5          20.7140    42.4340     4.9940 os         1 BM7      -0.459000
     16 H1          20.4680    41.5090     3.1530 h2         1 BM7       0.053700
     17 HO1         21.8570    43.8600     2.8370 ho         1 BM7       0.505000
     18 H2          22.8650    41.5690     2.5200 h1         1 BM7       0.078700
     19 HN2         24.1600    42.4210     4.9100 hn         1 BM7       0.323500
     20 H81         24.8870    44.7650     5.3090 hc         1 BM7       0.064367
     21 H82         25.9970    43.9640     4.2890 hc         1 BM7       0.064367
     22 H83         25.3820    45.5900     3.7710 hc         1 BM7       0.064367
     23 H3          22.0210    39.6960     3.8200 h1         1 BM7       0.059700
     24 HO3         23.9760    39.2050     5.0970 ho         1 BM7       0.466000
     25 H4          22.7700    41.2730     6.3410 h1         1 BM7       0.050700
     26 HO4         22.1610    39.4490     7.4390 ho         1 BM7       0.512000
     27 H5          19.9980    40.4940     5.2560 h1         1 BM7       0.061700
     28 H61         20.0530    40.5660     7.7410 h1         1 BM7       0.021200
     29 H62         20.8170    42.1610     7.6990 h1         1 BM7       0.021200
     30 HO6         18.5700    42.3490     8.0730 ho         1 BM7       0.503000
@<TRIPOS>BOND
     1     1     2 1   
     2     1     3 1   
     3     1    15 1   
     4     1    16 1   
     5     2    17 1   
     6     3     4 1   
     7     3     8 1   
     8     3    18 1   
     9     4     5 1   
    10     4    19 1   
    11     5     6 2   
    12     5     7 1   
    13     7    20 1   
    14     7    21 1   
    15     7    22 1   
    16     8     9 1   
    17     8    10 1   
    18     8    23 1   
    19     9    24 1   
    20    10    11 1   
    21    10    12 1   
    22    10    25 1   
    23    11    26 1   
    24    12    13 1   
    25    12    15 1   
    26    12    27 1   
    27    13    14 1   
    28    13    28 1   
    29    13    29 1   
    30    14    30 1   
@<TRIPOS>SUBSTRUCTURE
     1 BM7         1 TEMP              0 ****  ****    0 ROOT
