@<TRIPOS>MOLECULE
BM7
   30    30     1     0     0
SMALL
abcg2


@<TRIPOS>ATOM
      1 C1          21.1260    42.2060     3.6100 c6         1 BM7       0.402300
      2 O1          20.8190    43.2990     2.8480 oh         1 BM7      -0.656000
      3 C2          22.5920    41.7400     3.5550 c6         1 BM7       0.044700
      4 N2          23.5710    42.6410     4.1500 ns         1 BM7      -0.483900
      5 C7          23.8000    43.9200     3.8370 c          1 BM7       0.609100
      6 O7          23.0680    44.5870     3.1020 o          1 BM7      -0.626100
      7 C8          25.0330    44.5330     4.4440 c3         1 BM7      -0.174100
      8 C3          22.6500    40.4250     4.3340 c6         1 BM7       0.157300
      9 O3          23.9730    39.9560     4.3210 oh         1 BM7      -0.667000
     10 C4          22.1320    40.6170     5.7600 c6         1 BM7       0.094300
     11 O4          22.0980    39.3360     6.3500 oh         1 BM7      -0.725000
     12 C5          20.7430    41.2700     5.7310 c6         1 BM7       0.157300
     13 C6          20.2700    41.6410     7.1200 c3         1 BM7       0.173600
     14 O6          18.9480    42.1170     7.0430 oh         1 BM7      -0.697000
     15 O5          20.7690    42.4460     4.9520 os         1 BM7      -0.459000
     16 H1          20.5270    41.3620     3.2280 h2         1 BM7       0.053700
     17 HO1         21.5930    43.9090     2.8510 ho         1 BM7       0.505000
     18 H2          22.8500    41.5460     2.5060 h1         1 BM7       0.078700
     19 HN2         24.2930    42.1790     4.6830 hn         1 BM7       0.323500
     20 H81         24.7730    45.4770     4.9200 hc         1 BM7       0.064367
     21 H82         25.5210    43.8930     5.1750 hc         1 BM7       0.064367
     22 H83         25.7470    44.7540     3.6500 hc         1 BM7       0.064367
     23 H3          21.9800    39.7180     3.8230 h1         1 BM7       0.059700
     24 HO3         24.0280    39.2010     4.9190 ho         1 BM7       0.466000
     25 H4          22.8200    41.2770     6.3060 h1         1 BM7       0.050700
     26 HO4         22.2840    39.4140     7.2900 ho         1 BM7       0.512000
     27 H5          20.0380    40.5430     5.2930 h1         1 BM7       0.061700
     28 H61         20.3410    40.7540     7.7600 h1         1 BM7       0.021200
     29 H62         20.9530    42.3940     7.5360 h1         1 BM7       0.021200
     30 HO6         18.6600    42.3440     7.9310 ho         1 BM7       0.503000
@<TRIPOS>BOND
     1     1     2 1   
     2     1     3 1   
     3     1    15 1   
     4     1    16 1   
     5     2    17 1   
     6     3     4 1   
     7     3     8 1   
     8     3    18 1   
     9     4     5 1   
    10     4    19 1   
    11     5     6 2   
    12     5     7 1   
    13     7    20 1   
    14     7    21 1   
    15     7    22 1   
    16     8     9 1   
    17     8    10 1   
    18     8    23 1   
    19     9    24 1   
    20    10    11 1   
    21    10    12 1   
    22    10    25 1   
    23    11    26 1   
    24    12    13 1   
    25    12    15 1   
    26    12    27 1   
    27    13    14 1   
    28    13    28 1   
    29    13    29 1   
    30    14    30 1   
@<TRIPOS>SUBSTRUCTURE
     1 BM7         1 TEMP              0 ****  ****    0 ROOT
