@<TRIPOS>MOLECULE
BM8
   29    31     1     0     0
SMALL
abcg2


@<TRIPOS>ATOM
      1 CAA        -21.7070   -41.6690    61.6970 ca         1 BM8      -0.071000
      2 CAB        -21.4020   -42.5180    62.7470 ca         1 BM8      -0.105000
      3 CAC        -20.9990   -43.8370    62.5110 ca         1 BM8      -0.112000
      4 CAD        -20.8940   -44.3300    61.2240 ca         1 BM8      -0.060000
      5 CAE        -21.1940   -43.4880    60.1510 ca         1 BM8       0.103400
      6 CAF        -21.5970   -42.1660    60.4050 ca         1 BM8      -0.185000
      7 CAH        -21.4670   -42.8510    58.0560 cc         1 BM8       0.484800
      8 CAJ        -21.4900   -42.9130    56.6050 ca         1 BM8      -0.182900
      9 CAK        -21.0430   -44.0680    55.9530 ca         1 BM8      -0.016000
     10 CAL        -21.0320   -44.1850    54.5770 ca         1 BM8      -0.161300
     11 CAM        -21.5000   -43.1050    53.7950 ca         1 BM8       0.332000
     12 CAN        -21.9540   -41.9480    54.4440 ca         1 BM8      -0.197000
     13 CAO        -21.9460   -41.8540    55.8190 ca         1 BM8      -0.040000
     14 CAP        -20.5220   -45.4290    53.9120 c3         1 BM8      -0.039800
     15 NAG        -21.1340   -43.8330    58.8260 nd         1 BM8      -0.553100
     16 NAQ        -21.4620   -43.1660    52.4320 nv         1 BM8      -1.089000
     17 SAI        -21.8940   -41.3670    58.9000 ss         1 BM8       0.004800
     18 H1         -22.0190   -40.6490    61.8820 ha         1 BM8       0.122000
     19 H2         -21.4780   -42.1550    63.7640 ha         1 BM8       0.114000
     20 H3         -20.7670   -44.4800    63.3490 ha         1 BM8       0.116000
     21 H4         -20.5840   -45.3500    61.0380 ha         1 BM8       0.130000
     22 H5         -20.6830   -44.9000    56.5460 ha         1 BM8       0.133000
     23 H6         -22.3180   -41.1160    53.8530 ha         1 BM8       0.114000
     24 H7         -22.3120   -40.9400    56.2720 ha         1 BM8       0.115000
     25 H8         -19.6930   -45.2100    53.2350 hc         1 BM8       0.039367
     26 H9         -20.1690   -46.1500    54.6470 hc         1 BM8       0.039367
     27 H10        -21.2970   -45.9210    53.3170 hc         1 BM8       0.039367
     28 H11        -21.4580   -44.0720    51.9940 hn         1 BM8       0.463000
     29 H12        -21.9990   -42.4820    51.9250 hn         1 BM8       0.463000
@<TRIPOS>BOND
     1     1     2 ar  
     2     1     6 ar  
     3     1    18 1   
     4     2     3 ar  
     5     2    19 1   
     6     3     4 ar  
     7     3    20 1   
     8     4     5 ar  
     9     4    21 1   
    10     5     6 ar  
    11     5    15 1   
    12     6    17 1   
    13     7     8 1   
    14     7    15 2   
    15     7    17 1   
    16     8     9 ar  
    17     8    13 ar  
    18     9    10 ar  
    19     9    22 1   
    20    10    11 ar  
    21    10    14 1   
    22    11    12 ar  
    23    11    16 1   
    24    12    13 ar  
    25    12    23 1   
    26    13    24 1   
    27    14    25 1   
    28    14    26 1   
    29    14    27 1   
    30    16    28 1   
    31    16    29 1   
@<TRIPOS>SUBSTRUCTURE
     1 BM8         1 TEMP              0 ****  ****    0 ROOT
