@<TRIPOS>MOLECULE
BM8
   29    31     1     0     0
SMALL
No Charge or Current Charge


@<TRIPOS>ATOM
      1 CAA        -21.7880   -41.6960    61.7090 ca         1 BM8      -0.071000
      2 CAB        -21.4410   -42.5200    62.7970 ca         1 BM8      -0.105000
      3 CAC        -20.9510   -43.8230    62.5680 ca         1 BM8      -0.112000
      4 CAD        -20.8070   -44.3040    61.2500 ca         1 BM8      -0.060000
      5 CAE        -21.1550   -43.4740    60.1710 ca         1 BM8       0.103400
      6 CAF        -21.6330   -42.2030    60.4090 ca         1 BM8      -0.185000
      7 CAH        -21.4630   -42.8270    58.0800 cc         1 BM8       0.484800
      8 CAJ        -21.4750   -42.9110    56.6050 ca         1 BM8      -0.182900
      9 CAK        -21.0470   -44.0900    55.9490 ca         1 BM8      -0.016000
     10 CAL        -21.0500   -44.1900    54.5430 ca         1 BM8      -0.161300
     11 CAM        -21.4880   -43.0920    53.7750 ca         1 BM8       0.332000
     12 CAN        -21.9130   -41.9210    54.4110 ca         1 BM8      -0.197000
     13 CAO        -21.9090   -41.8240    55.8120 ca         1 BM8      -0.040000
     14 CAP        -20.5780   -45.4870    53.8840 c3         1 BM8      -0.039800
     15 NAG        -21.0480   -43.8560    58.8400 nd         1 BM8      -0.553100
     16 NAQ        -21.5110   -43.1440    52.4070 nv         1 BM8      -1.089000
     17 SAI        -22.0020   -41.3480    58.9240 ss         1 BM8       0.004800
     18 H1         -22.1670   -40.6890    61.8740 ha         1 BM8       0.122000
     19 H2         -21.5520   -42.1510    63.8140 ha         1 BM8       0.114000
     20 H3         -20.6840   -44.4580    63.4090 ha         1 BM8       0.116000
     21 H4         -20.4290   -45.3070    61.0690 ha         1 BM8       0.130000
     22 H5         -20.7070   -44.9430    56.5330 ha         1 BM8       0.133000
     23 H6         -22.2500   -41.0730    53.8210 ha         1 BM8       0.114000
     24 H7         -22.2470   -40.8940    56.2630 ha         1 BM8       0.115000
     25 H8         -19.7310   -45.3030    53.2120 hc         1 BM8       0.039367
     26 H9         -20.2510   -46.2260    54.6240 hc         1 BM8       0.039367
     27 H10        -21.3820   -45.9470    53.2970 hc         1 BM8       0.039367
     28 H11        -21.3640   -44.0370    51.9420 hn         1 BM8       0.463000
     29 H12        -21.9920   -42.4160    51.8820 hn         1 BM8       0.463000
@<TRIPOS>BOND
     1     1     2 ar  
     2     1     6 ar  
     3     1    18 1   
     4     2     3 ar  
     5     2    19 1   
     6     3     4 ar  
     7     3    20 1   
     8     4     5 ar  
     9     4    21 1   
    10     5     6 ar  
    11     5    15 1   
    12     6    17 1   
    13     7     8 1   
    14     7    15 2   
    15     7    17 1   
    16     8     9 ar  
    17     8    13 ar  
    18     9    10 ar  
    19     9    22 1   
    20    10    11 ar  
    21    10    14 1   
    22    11    12 ar  
    23    11    16 1   
    24    12    13 ar  
    25    12    23 1   
    26    13    24 1   
    27    14    25 1   
    28    14    26 1   
    29    14    27 1   
    30    16    28 1   
    31    16    29 1   
@<TRIPOS>SUBSTRUCTURE
     1 BM8         1 TEMP              0 ****  ****    0 ROOT
