@<TRIPOS>MOLECULE
BM9
   71    74     1     0     0
SMALL
bcc


@<TRIPOS>ATOM
      1 C27          3.0250     0.3350     0.6500 c          1 BM9       0.671100
      2 O28          2.4430     0.4090     1.7230 o          1 BM9      -0.593100
      3 C29          4.2120    -0.5840     0.4490 c6         1 BM9      -0.178700
      4 C30          3.8940    -1.9730     1.0140 c6         1 BM9       0.220800
      5 N31          5.0210    -2.8720     0.8810 nh         1 BM9      -0.741600
      6 C32          6.1990    -2.3740     1.5770 c6         1 BM9       0.209800
      7 C33          6.6200    -1.0090     1.0450 c6         1 BM9      -0.108400
      8 C34          5.4660    -0.0160     1.1260 c6         1 BM9      -0.067400
      9 C35          5.1220    -3.5990    -0.2860 c2         1 BM9       0.792100
     10 N37          4.1960    -3.5340    -1.1730 n2         1 BM9      -0.905100
     11 N36          6.2740    -4.3510    -0.4040 nv         1 BM9      -0.948800
     12 N26          2.6800     1.0700    -0.4250 ns         1 BM9      -0.571900
     13 C25          1.4940     1.8910    -0.4940 c3         1 BM9       0.094000
     14 C24          0.3590     1.1070    -1.1520 c5         1 BM9       0.082700
     15 N20         -0.8830     1.8770    -1.3090 n          1 BM9      -0.467800
     16 C21         -1.2950     1.9690    -2.7070 c5         1 BM9       0.102000
     17 C22         -0.5990     0.7820    -3.3560 c5         1 BM9      -0.096400
     18 C23          0.7080     0.6810    -2.5830 c5         1 BM9      -0.093400
     19 N14         -3.8370     2.6120     0.7140 n7         1 BM9      -0.777100
     20 C15         -3.0000     2.8340    -0.4560 c3         1 BM9       0.132500
     21 C18         -1.6210     2.1900    -0.2340 c          1 BM9       0.649100
     22 O19         -1.2330     1.9910     0.9080 o          1 BM9      -0.593100
     23 C16         -2.8650     4.3260    -0.7290 c3         1 BM9       0.151400
     24 O17         -2.1790     4.9120     0.3450 oh         1 BM9      -0.583800
     25 O13         -5.1820     1.0830     2.1320 o          1 BM9      -0.604300
     26 O12         -5.8050     1.4220    -0.2830 o          1 BM9      -0.604300
     27 C2          -2.8050    -0.5480     1.1200 ca         1 BM9       0.026000
     28 C1          -3.7450    -0.0840     0.2400 ca         1 BM9      -0.320500
     29 C8          -3.8080    -0.5490    -1.0910 ca         1 BM9      -0.060000
     30 C7          -2.8870    -1.4600    -1.5220 ca         1 BM9      -0.141000
     31 C6          -0.8200    -2.7590    -1.1260 ca         1 BM9      -0.146000
     32 C5           0.1950    -3.1320    -0.2870 ca         1 BM9      -0.098000
     33 C4           0.2070    -2.7010     1.0560 ca         1 BM9      -0.137000
     34 C3          -0.7850    -1.8890     1.5320 ca         1 BM9      -0.083000
     35 C9          -1.8300    -1.4650     0.6800 ca         1 BM9      -0.068000
     36 C10         -1.8550    -1.9120    -0.6670 ca         1 BM9       0.001000
     37 H29          4.4150    -0.7010    -0.6210 hc         1 BM9       0.066700
     38 H301         3.6480    -1.8870     2.0760 h1         1 BM9       0.076200
     39 H302         3.0370    -2.4020     0.5030 h1         1 BM9       0.076200
     40 H321         5.9450    -2.2910     2.6380 h1         1 BM9       0.055200
     41 H322         7.0240    -3.0790     1.5160 h1         1 BM9       0.055200
     42 H331         7.4730    -0.6410     1.6210 hc         1 BM9       0.051200
     43 H332         6.9580    -1.1130     0.0090 hc         1 BM9       0.051200
     44 H341         5.7460     0.9330     0.6630 hc         1 BM9       0.052700
     45 H342         5.2430     0.1950     2.1760 hc         1 BM9       0.052700
     46 HN7          4.3660    -4.2100    -1.9090 hn         1 BM9       0.375400
     47 HN61         6.6360    -4.7640     0.4420 hn         1 BM9       0.396800
     48 HN62         6.2540    -5.0210    -1.1560 hn         1 BM9       0.396800
     49 HN6          3.1980     0.9270    -1.2770 hn         1 BM9       0.308500
     50 H251         1.7160     2.7900    -1.0740 h1         1 BM9       0.075700
     51 H252         1.2210     2.1960     0.5120 h1         1 BM9       0.075700
     52 H24          0.1460     0.2320    -0.5310 h1         1 BM9       0.081700
     53 H211        -2.3760     1.9120    -2.8170 h1         1 BM9       0.047700
     54 H212        -0.9630     2.9130    -3.1460 h1         1 BM9       0.047700
     55 H221        -1.2020    -0.1170    -3.2210 hc         1 BM9       0.057700
     56 H222        -0.4520     0.9290    -4.4250 hc         1 BM9       0.057700
     57 H231         1.1400    -0.3180    -2.6100 hc         1 BM9       0.053700
     58 H232         1.4420     1.3690    -3.0150 hc         1 BM9       0.053700
     59 HN4         -3.3190     2.7140     1.5830 hn         1 BM9       0.455800
     60 H15         -3.5070     2.4100    -1.3250 h1         1 BM9       0.080700
     61 H161        -2.3400     4.4680    -1.6830 h1         1 BM9       0.031700
     62 H162        -3.8740     4.7360    -0.8530 h1         1 BM9       0.031700
     63 HO7         -2.1730     5.8650     0.2160 ho         1 BM9       0.409000
     64 H8          -4.5730    -0.1860    -1.7640 ha         1 BM9       0.154000
     65 H7          -2.9260    -1.8250    -2.5410 ha         1 BM9       0.131000
     66 H6          -0.8310    -3.0890    -2.1580 ha         1 BM9       0.132000
     67 H5           1.0050    -3.7490    -0.6540 ha         1 BM9       0.144000
     68 H4           1.0110    -3.0100     1.7100 ha         1 BM9       0.139000
     69 H3          -0.7700    -1.5450     2.5580 ha         1 BM9       0.146000
     70 S11         -4.7880     1.2560     0.7430 sy         1 BM9       1.277200
     71 H2          -2.7660    -0.1950     2.1430 ha         1 BM9       0.158000
@<TRIPOS>BOND
     1     1     2 2   
     2     1     3 1   
     3     1    12 1   
     4     3     4 1   
     5     3     8 1   
     6     3    37 1   
     7     4     5 1   
     8     4    38 1   
     9     4    39 1   
    10     5     6 1   
    11     5     9 1   
    12     6     7 1   
    13     6    40 1   
    14     6    41 1   
    15     7     8 1   
    16     7    42 1   
    17     7    43 1   
    18     8    44 1   
    19     8    45 1   
    20     9    10 2   
    21     9    11 1   
    22    10    46 1   
    23    11    47 1   
    24    11    48 1   
    25    12    13 1   
    26    12    49 1   
    27    13    14 1   
    28    13    50 1   
    29    13    51 1   
    30    14    15 1   
    31    14    18 1   
    32    14    52 1   
    33    15    16 1   
    34    15    21 1   
    35    16    17 1   
    36    16    53 1   
    37    16    54 1   
    38    17    18 1   
    39    17    55 1   
    40    17    56 1   
    41    18    57 1   
    42    18    58 1   
    43    19    20 1   
    44    19    59 1   
    45    19    70 1   
    46    20    21 1   
    47    20    23 1   
    48    20    60 1   
    49    21    22 2   
    50    23    24 1   
    51    23    61 1   
    52    23    62 1   
    53    24    63 1   
    54    25    70 2   
    55    26    70 2   
    56    27    28 ar  
    57    27    35 ar  
    58    27    71 1   
    59    28    29 ar  
    60    28    70 1   
    61    29    30 ar  
    62    29    64 1   
    63    30    36 ar  
    64    30    65 1   
    65    31    32 ar  
    66    31    36 ar  
    67    31    66 1   
    68    32    33 ar  
    69    32    67 1   
    70    33    34 ar  
    71    33    68 1   
    72    34    35 ar  
    73    34    69 1   
    74    35    36 ar  
@<TRIPOS>SUBSTRUCTURE
     1 BM9         1 TEMP              0 ****  ****    0 ROOT
