@<TRIPOS>MOLECULE
BM9
   71    74     1     0     0
SMALL
No Charge or Current Charge


@<TRIPOS>ATOM
      1 C27          3.2990     0.1210     0.8130 c          1 BM9       0.604100
      2 O28          2.5000    -0.2830     1.6450 o          1 BM9      -0.593100
      3 C29          4.7300    -0.4230     0.7350 c6         1 BM9      -0.178700
      4 C30          4.7500    -1.9230     0.3500 c6         1 BM9       0.220800
      5 N31          6.1530    -2.4210     0.2350 nh         1 BM9      -0.741600
      6 C32          6.9190    -2.2110     1.4960 c6         1 BM9       0.209800
      7 C33          7.0070    -0.7010     1.8340 c6         1 BM9      -0.108400
      8 C34          5.5940    -0.0830     1.9790 c6         1 BM9      -0.067400
      9 C35          6.8020    -2.3820    -0.9530 c2         1 BM9       0.792100
     10 N37          6.4910    -1.6230    -1.8950 n2         1 BM9      -0.905100
     11 N36          7.5920    -3.4220    -1.1160 nv         1 BM9      -1.059200
     12 N26          2.9700     1.0860    -0.1130 ns         1 BM9      -0.504900
     13 C25          1.6410     1.6980    -0.2510 c3         1 BM9       0.094000
     14 C24          0.5200     0.7150    -0.6900 c5         1 BM9       0.082700
     15 N20         -0.7600     1.3740    -1.0660 n          1 BM9      -0.400800
     16 C21         -1.3470     0.7950    -2.3010 c5         1 BM9       0.102000
     17 C22         -0.4950    -0.4790    -2.5110 c5         1 BM9      -0.096400
     18 C23          0.8860    -0.0100    -2.0170 c5         1 BM9      -0.093400
     19 N14         -3.8010     3.2300     0.4570 n7         1 BM9      -0.832300
     20 C15         -2.8340     2.8410    -0.6290 c3         1 BM9       0.132500
     21 C18         -1.5310     2.1120    -0.1320 c          1 BM9       0.582100
     22 O19         -1.1530     2.2170     1.0300 o          1 BM9      -0.593100
     23 C16         -2.4350     4.0920    -1.4570 c3         1 BM9       0.174600
     24 O17         -1.8090     5.0870    -0.6270 oh         1 BM9      -0.646000
     25 O13         -3.8950     2.1130     2.6830 o          1 BM9      -0.533500
     26 O12         -6.0090     2.3680     1.2520 o          1 BM9      -0.533500
     27 C2          -3.1490    -0.2890     1.0290 ca         1 BM9       0.044000
     28 C1          -4.1920     0.5310     0.5510 ca         1 BM9      -0.320500
     29 C8          -4.9350     0.1310    -0.5790 ca         1 BM9      -0.042000
     30 C7          -4.6180    -1.0670    -1.2410 ca         1 BM9      -0.123000
     31 C6          -3.2330    -3.0650    -1.4540 ca         1 BM9      -0.128000
     32 C5          -2.1710    -3.8640    -0.9960 ca         1 BM9      -0.080000
     33 C4          -1.4340    -3.4740     0.1350 ca         1 BM9      -0.119000
     34 C3          -1.7600    -2.2860     0.8130 ca         1 BM9      -0.065000
     35 C9          -2.8230    -1.4820     0.3570 ca         1 BM9      -0.068000
     36 C10         -3.5610    -1.8730    -0.7820 ca         1 BM9       0.001000
     37 H29          5.1980     0.1080    -0.1030 hc         1 BM9       0.066700
     38 H301         4.2250    -2.4880     1.1350 h1         1 BM9       0.076200
     39 H302         4.1900    -2.0900    -0.5830 h1         1 BM9       0.076200
     40 H321         6.4140    -2.7260     2.3280 h1         1 BM9       0.055200
     41 H322         7.9300    -2.6370     1.4260 h1         1 BM9       0.055200
     42 H331         7.5730    -0.5610     2.7650 hc         1 BM9       0.051200
     43 H332         7.5660    -0.1790     1.0460 hc         1 BM9       0.051200
     44 H341         5.6680     1.0060     2.1090 hc         1 BM9       0.052700
     45 H342         5.1130    -0.4770     2.8850 hc         1 BM9       0.052700
     46 HN7          7.0920    -1.8680    -2.6870 hn         1 BM9       0.375400
     47 HN61         7.4430    -4.0620    -0.3510 hn         1 BM9       0.452000
     48 HN62         7.4890    -3.8520    -2.0240 hn         1 BM9       0.452000
     49 HN6          3.6990     1.3620    -0.7620 hn         1 BM9       0.308500
     50 H251         1.7090     2.5070    -0.9910 h1         1 BM9       0.075700
     51 H252         1.3700     2.1530     0.7100 h1         1 BM9       0.075700
     52 H24          0.3440    -0.0120     0.1140 h1         1 BM9       0.081700
     53 H211        -2.4070     0.5320    -2.1940 h1         1 BM9       0.047700
     54 H212        -1.2410     1.4930    -3.1420 h1         1 BM9       0.047700
     55 H221        -0.8680    -1.3110    -1.9040 hc         1 BM9       0.057700
     56 H222        -0.4880    -0.8110    -3.5550 hc         1 BM9       0.057700
     57 H231         1.5810    -0.8440    -1.8600 hc         1 BM9       0.053700
     58 H232         1.3500     0.6730    -2.7390 hc         1 BM9       0.053700
     59 HN4         -3.2810     3.7300     1.1780 hn         1 BM9       0.511000
     60 H15         -3.3440     2.1740    -1.3300 h1         1 BM9       0.080700
     61 H161        -1.7580     3.7900    -2.2670 h1         1 BM9       0.031700
     62 H162        -3.3400     4.5060    -1.9220 h1         1 BM9       0.031700
     63 HO7         -1.6850     5.8880    -1.1830 ho         1 BM9       0.448000
     64 H8          -5.7510     0.7490    -0.9520 ha         1 BM9       0.136000
     65 H7          -5.1910    -1.3640    -2.1160 ha         1 BM9       0.113000
     66 H6          -3.7970    -3.3720    -2.3320 ha         1 BM9       0.114000
     67 H5          -1.9180    -4.7840    -1.5190 ha         1 BM9       0.126000
     68 H4          -0.6110    -4.0910     0.4880 ha         1 BM9       0.121000
     69 H3          -1.1830    -1.9910     1.6870 ha         1 BM9       0.128000
     70 S11         -4.5790     2.0790     1.3900 sy         1 BM9       1.135600
     71 H2          -2.5760     0.0030     1.9070 ha         1 BM9       0.140000
@<TRIPOS>BOND
     1     1     2 2   
     2     1     3 1   
     3     1    12 1   
     4     3     4 1   
     5     3     8 1   
     6     3    37 1   
     7     4     5 1   
     8     4    38 1   
     9     4    39 1   
    10     5     6 1   
    11     5     9 1   
    12     6     7 1   
    13     6    40 1   
    14     6    41 1   
    15     7     8 1   
    16     7    42 1   
    17     7    43 1   
    18     8    44 1   
    19     8    45 1   
    20     9    10 2   
    21     9    11 1   
    22    10    46 1   
    23    11    47 1   
    24    11    48 1   
    25    12    13 1   
    26    12    49 1   
    27    13    14 1   
    28    13    50 1   
    29    13    51 1   
    30    14    15 1   
    31    14    18 1   
    32    14    52 1   
    33    15    16 1   
    34    15    21 1   
    35    16    17 1   
    36    16    53 1   
    37    16    54 1   
    38    17    18 1   
    39    17    55 1   
    40    17    56 1   
    41    18    57 1   
    42    18    58 1   
    43    19    20 1   
    44    19    59 1   
    45    19    70 1   
    46    20    21 1   
    47    20    23 1   
    48    20    60 1   
    49    21    22 2   
    50    23    24 1   
    51    23    61 1   
    52    23    62 1   
    53    24    63 1   
    54    25    70 2   
    55    26    70 2   
    56    27    28 ar  
    57    27    35 ar  
    58    27    71 1   
    59    28    29 ar  
    60    28    70 1   
    61    29    30 ar  
    62    29    64 1   
    63    30    36 ar  
    64    30    65 1   
    65    31    32 ar  
    66    31    36 ar  
    67    31    66 1   
    68    32    33 ar  
    69    32    67 1   
    70    33    34 ar  
    71    33    68 1   
    72    34    35 ar  
    73    34    69 1   
    74    35    36 ar  
@<TRIPOS>SUBSTRUCTURE
     1 BM9         1 TEMP              0 ****  ****    0 ROOT
