@<TRIPOS>MOLECULE
BMA
   24    24     1     0     0
SMALL
No Charge or Current Charge


@<TRIPOS>ATOM
      1 C1          27.8060    -0.0430    -1.0350 c6         1 BMA       0.409300
      2 C2          28.3490     1.2880    -0.3960 c6         1 BMA       0.158300
      3 C3          29.7890     1.0890     0.2110 c6         1 BMA       0.130300
      4 C4          30.5050    -0.1510    -0.4250 c6         1 BMA       0.107300
      5 C5          29.6150    -1.4540    -0.2910 c6         1 BMA       0.172300
      6 C6          29.9510    -2.3160     0.9690 c3         1 BMA       0.138600
      7 O1          26.3890    -0.0090    -1.0330 oh         1 BMA      -0.685000
      8 O2          27.5160     1.7060     0.7070 oh         1 BMA      -0.691000
      9 O3          29.7010     0.9600     1.6580 oh         1 BMA      -0.727000
     10 O4          30.7650     0.1360    -1.8190 oh         1 BMA      -0.729000
     11 O5          28.1920    -1.1500    -0.2170 os         1 BMA      -0.492000
     12 O6          31.3160    -2.7820     0.9860 oh         1 BMA      -0.738000
     13 H1          28.1830    -0.1790    -2.0600 h2         1 BMA       0.036700
     14 H2          28.3860     2.0610    -1.1770 h1         1 BMA       0.053700
     15 H3          30.3800     1.9850    -0.0350 h1         1 BMA       0.058700
     16 H4          31.4610    -0.3070     0.0960 h1         1 BMA       0.061700
     17 H5          29.7820    -2.0890    -1.1730 h1         1 BMA       0.062700
     18 H61         29.7430    -1.7180     1.8660 h1         1 BMA       0.047200
     19 H62         29.2620    -3.1720     0.9840 h1         1 BMA       0.047200
     20 HO1         26.2190     0.5620    -0.2460 ho         1 BMA       0.514000
     21 HO2         28.1320     1.4980     1.4670 ho         1 BMA       0.518000
     22 HO3         30.6230     0.9960     2.0120 ho         1 BMA       0.520000
     23 HO4         31.4890    -0.4670    -2.1130 ho         1 BMA       0.515000
     24 HO6         31.4220    -3.3430     1.7920 ho         1 BMA       0.510000
@<TRIPOS>BOND
     1     1     2 1   
     2     1     7 1   
     3     1    11 1   
     4     1    13 1   
     5     2     3 1   
     6     2     8 1   
     7     2    14 1   
     8     3     4 1   
     9     3     9 1   
    10     3    15 1   
    11     4     5 1   
    12     4    10 1   
    13     4    16 1   
    14     5     6 1   
    15     5    11 1   
    16     5    17 1   
    17     6    12 1   
    18     6    18 1   
    19     6    19 1   
    20     7    20 1   
    21     8    21 1   
    22     9    22 1   
    23    10    23 1   
    24    12    24 1   
@<TRIPOS>SUBSTRUCTURE
     1 BMA         1 TEMP              0 ****  ****    0 ROOT
