@<TRIPOS>MOLECULE
BMA
   24    24     1     0     0
SMALL
abcg2


@<TRIPOS>ATOM
      1 C1          27.8660     0.0700    -0.9680 c6         1 BMA       0.409300
      2 C2          28.4030     1.0650     0.0460 c6         1 BMA       0.158300
      3 C3          29.9460     1.0510    -0.0130 c6         1 BMA       0.130300
      4 C4          30.5230    -0.2850    -0.5200 c6         1 BMA       0.107300
      5 C5          29.6060    -1.4820    -0.2730 c6         1 BMA       0.172300
      6 C6          29.6400    -1.9800     1.1700 c3         1 BMA       0.138600
      7 O1          26.4830     0.1080    -0.9460 oh         1 BMA      -0.685000
      8 O2          27.9010     0.7240     1.3100 oh         1 BMA      -0.691000
      9 O3          30.4020     1.3980     1.2700 oh         1 BMA      -0.727000
     10 O4          30.7490    -0.1060    -1.9060 oh         1 BMA      -0.729000
     11 O5          28.2630    -1.2470    -0.6580 os         1 BMA      -0.492000
     12 O6          30.9130    -2.5450     1.3980 oh         1 BMA      -0.738000
     13 H1          28.2470     0.3530    -1.9600 h2         1 BMA       0.036700
     14 H2          28.0620     2.0680    -0.2480 h1         1 BMA       0.053700
     15 H3          30.2500     1.8050    -0.7490 h1         1 BMA       0.058700
     16 H4          31.4710    -0.4770    -0.0010 h1         1 BMA       0.061700
     17 H5          29.9770    -2.3130    -0.8910 h1         1 BMA       0.062700
     18 H61         29.4250    -1.1670     1.8690 h1         1 BMA       0.047200
     19 H62         28.8430    -2.7250     1.2890 h1         1 BMA       0.047200
     20 HO1         26.1440    -0.3020    -1.7480 ho         1 BMA       0.514000
     21 HO2         28.4440     1.1720     1.9680 ho         1 BMA       0.518000
     22 HO3         31.3430     1.5950     1.2280 ho         1 BMA       0.520000
     23 HO4         31.0860    -0.9300    -2.2720 ho         1 BMA       0.515000
     24 HO6         30.9880    -2.7490     2.3340 ho         1 BMA       0.510000
@<TRIPOS>BOND
     1     1     2 1   
     2     1     7 1   
     3     1    11 1   
     4     1    13 1   
     5     2     3 1   
     6     2     8 1   
     7     2    14 1   
     8     3     4 1   
     9     3     9 1   
    10     3    15 1   
    11     4     5 1   
    12     4    10 1   
    13     4    16 1   
    14     5     6 1   
    15     5    11 1   
    16     5    17 1   
    17     6    12 1   
    18     6    18 1   
    19     6    19 1   
    20     7    20 1   
    21     8    21 1   
    22     9    22 1   
    23    10    23 1   
    24    12    24 1   
@<TRIPOS>SUBSTRUCTURE
     1 BMA         1 TEMP              0 ****  ****    0 ROOT
