@<TRIPOS>MOLECULE
BMB
   92    96     1     0     0
SMALL
No Charge or Current Charge


@<TRIPOS>ATOM
      1 C           -0.2020   -44.2760    26.3190 c          1 BMB       0.614100
      2 N            0.4540   -42.1370    27.6150 n7         1 BMB      -0.868400
      3 O            0.5970   -44.7260    25.5020 o          1 BMB      -0.623100
      4 CA          -0.4320   -42.7370    26.5600 c3         1 BMB       0.104500
      5 CB          -0.3610   -41.8980    25.2540 c3         1 BMB      -0.098400
      6 CAA         -1.4370   -42.2760    24.2130 c3         1 BMB      -0.091100
      7 CAB          1.9130   -42.3400    27.4620 c3         1 BMB       0.145100
      8 CAF          7.5050   -44.9220    26.9500 ca         1 BMB      -0.114000
      9 CAG         -8.9710   -49.7090    32.8930 ca         1 BMB      -0.105000
     10 CAH         -3.4530   -54.3400    32.5920 ca         1 BMB      -0.105000
     11 CAI          7.2290   -46.3000    26.9560 ca         1 BMB      -0.113500
     12 CAJ          6.7940   -44.0610    27.8030 ca         1 BMB      -0.113500
     13 CAK         -7.9460   -48.9790    33.5180 ca         1 BMB      -0.113500
     14 CAL         -8.6560   -50.6320    31.8830 ca         1 BMB      -0.113500
     15 CAM         -3.3270   -53.3190    33.5480 ca         1 BMB      -0.113500
     16 CAN         -4.0270   -54.0590    31.3410 ca         1 BMB      -0.113500
     17 CAO          6.2440   -46.8180    27.8150 ca         1 BMB      -0.102000
     18 CAP          5.8090   -44.5780    28.6630 ca         1 BMB      -0.102000
     19 CAQ         -6.6080   -49.1720    33.1340 ca         1 BMB      -0.095250
     20 CAR         -7.3180   -50.8260    31.4970 ca         1 BMB      -0.095250
     21 CAS         -3.7730   -52.0190    33.2530 ca         1 BMB      -0.095250
     22 CAT         -4.4740   -52.7600    31.0450 ca         1 BMB      -0.095250
     23 CAW          0.6470   -46.4310    29.1830 c3         1 BMB      -0.075400
     24 CAX          0.4610   -48.6560    27.8990 c3         1 BMB      -0.083400
     25 CAY         -0.1460   -49.4040    26.6920 c3         1 BMB      -0.081400
     26 CAZ         -2.2370   -50.8530    27.1150 c5         1 BMB      -0.093400
     27 CBA         -3.7180   -50.5420    27.4220 c5         1 BMB      -0.082400
     28 CBB          4.4600   -46.5160    29.6080 c3         1 BMB       0.204100
     29 NBD          3.1200   -46.2540    29.0590 n7         1 BMB      -0.865400
     30 NBE         -1.0010   -45.1040    27.0790 ns         1 BMB      -0.481900
     31 CBH         -3.4140   -49.5660    29.7690 c          1 BMB       0.596100
     32 CBI         -2.2140   -47.1870    27.7210 c          1 BMB       0.560000
     33 CBJ          5.5280   -45.9600    28.6750 ca         1 BMB      -0.086300
     34 CBK         -6.2820   -50.0980    32.1200 ca         1 BMB      -0.103800
     35 CBL         -4.3480   -51.7250    32.0000 ca         1 BMB      -0.103800
     36 CBM          0.3880   -47.1030    27.7940 c3         1 BMB      -0.061700
     37 CBO         -1.7020   -49.4640    26.6630 c5         1 BMB       0.123700
     38 CBP         -3.6040   -49.2300    28.2550 c5         1 BMB       0.029700
     39 CBQ         -0.9210   -46.5830    27.1030 c3         1 BMB       0.041700
     40 CBR         -4.8260   -50.3000    31.7080 c3         1 BMB       0.205300
     41 NBS         -2.4140   -48.5810    27.6290 n          1 BMB      -0.394800
     42 HN           0.2670   -41.1270    27.6650 hn         1 BMB       0.412000
     43 HA          -1.4690   -42.6500    26.9130 h1         1 BMB       0.057700
     44 HB          -0.4830   -40.8360    25.5010 hc         1 BMB       0.050700
     45 HBA          0.6300   -42.0040    24.7960 hc         1 BMB       0.050700
     46 HAA         -1.3600   -41.6250    23.3330 hc         1 BMB       0.038033
     47 HAAA        -1.3170   -43.3130    23.8780 hc         1 BMB       0.038033
     48 HAAB        -2.4430   -42.1620    24.6340 hc         1 BMB       0.038033
     49 HAB          2.4560   -41.8700    28.2940 h1         1 BMB       0.037700
     50 HABA         2.1690   -43.4080    27.4610 h1         1 BMB       0.037700
     51 HABB         2.2820   -41.8960    26.5270 h1         1 BMB       0.037700
     52 HAG        -10.0060   -49.5590    33.1910 ha         1 BMB       0.113000
     53 HAH         -3.1080   -55.3460    32.8200 ha         1 BMB       0.113000
     54 HAI          7.7790   -46.9670    26.2950 ha         1 BMB       0.108000
     55 HAJ          7.0050   -42.9940    27.7980 ha         1 BMB       0.108000
     56 HAK         -8.1880   -48.2640    34.3010 ha         1 BMB       0.113750
     57 HAL         -9.4490   -51.1980    31.3980 ha         1 BMB       0.113750
     58 HAM         -2.8850   -53.5340    34.5180 ha         1 BMB       0.113750
     59 HAN         -4.1270   -54.8490    30.6000 ha         1 BMB       0.113750
     60 HAO          6.0360   -47.8860    27.8120 ha         1 BMB       0.123000
     61 HAP          5.2580   -43.9070    29.3190 ha         1 BMB       0.123000
     62 HAQ         -5.8240   -48.6000    33.6260 ha         1 BMB       0.119250
     63 HAR         -7.0900   -51.5460    30.7150 ha         1 BMB       0.119250
     64 HAS         -3.6730   -51.2370    34.0030 ha         1 BMB       0.119250
     65 HAT         -4.9190   -52.5630    30.0730 ha         1 BMB       0.119250
     66 HAW         -0.1610   -46.7150    29.8680 hc         1 BMB       0.060700
     67 HAWA         0.5970   -45.3400    29.0900 hc         1 BMB       0.060700
     68 HAX         -0.0280   -49.0010    28.8190 hc         1 BMB       0.064200
     69 HAXA         1.5140   -48.9510    27.9900 hc         1 BMB       0.064200
     70 HAY          0.2220   -48.9380    25.7690 hc         1 BMB       0.049200
     71 HAYA         0.2610   -50.4230    26.6740 hc         1 BMB       0.049200
     72 HAZ         -1.7150   -51.2170    28.0080 hc         1 BMB       0.063200
     73 HAZA        -2.1210   -51.6160    26.3370 hc         1 BMB       0.063200
     74 HBAA        -4.2800   -50.3680    26.4960 hc         1 BMB       0.059200
     75 HBAB        -4.2220   -51.3570    27.9540 hc         1 BMB       0.059200
     76 HBB          4.5680   -46.0490    30.5960 h1         1 BMB       0.035700
     77 HBBA         4.6180   -47.5960    29.7360 h1         1 BMB       0.035700
     78 HNBD         3.0770   -46.6790    28.1280 hn         1 BMB       0.414000
     79 HNBE        -1.6440   -44.6530    27.7210 hn         1 BMB       0.330500
     80 HBM          1.2090   -46.8010    27.1330 hc         1 BMB       0.052700
     81 HBO         -2.0410   -49.2480    25.6400 h1         1 BMB       0.054700
     82 HBP         -4.5070   -48.6140    28.1490 h1         1 BMB       0.080700
     83 HBQ         -0.9130   -46.9120    26.0560 h1         1 BMB       0.094700
     84 HBR         -4.2110   -49.6180    32.3130 h1         1 BMB       0.091700
     85 OAD         -2.3800   -49.5080    30.4240 o          1 BMB      -0.598100
     86 OAE         -3.0230   -46.4850    28.3190 o          1 BMB      -0.580000
     87 CAV          1.9960   -46.7750    29.8560 c3         1 BMB       0.158800
     88 NBF         -4.6300   -49.9170    30.3130 ns         1 BMB      -0.500900
     89 HAF          8.2670   -44.5220    26.2850 ha         1 BMB       0.109000
     90 HAV          2.0090   -46.3230    30.8570 h1         1 BMB       0.029700
     91 HAVA         2.0800   -47.8620    29.9880 h1         1 BMB       0.029700
     92 HNBF        -5.4370   -49.9050    29.7030 hn         1 BMB       0.314500
@<TRIPOS>BOND
     1     1     3 2   
     2     1     4 1   
     3     1    30 1   
     4     2     4 1   
     5     2     7 1   
     6     2    42 1   
     7     4     5 1   
     8     4    43 1   
     9     5     6 1   
    10     5    44 1   
    11     5    45 1   
    12     6    46 1   
    13     6    47 1   
    14     6    48 1   
    15     7    49 1   
    16     7    50 1   
    17     7    51 1   
    18     8    11 ar  
    19     8    12 ar  
    20     8    89 1   
    21     9    13 ar  
    22     9    14 ar  
    23     9    52 1   
    24    10    15 ar  
    25    10    16 ar  
    26    10    53 1   
    27    11    17 ar  
    28    11    54 1   
    29    12    18 ar  
    30    12    55 1   
    31    13    19 ar  
    32    13    56 1   
    33    14    20 ar  
    34    14    57 1   
    35    15    21 ar  
    36    15    58 1   
    37    16    22 ar  
    38    16    59 1   
    39    17    33 ar  
    40    17    60 1   
    41    18    33 ar  
    42    18    61 1   
    43    19    34 ar  
    44    19    62 1   
    45    20    34 ar  
    46    20    63 1   
    47    21    35 ar  
    48    21    64 1   
    49    22    35 ar  
    50    22    65 1   
    51    23    36 1   
    52    23    66 1   
    53    23    67 1   
    54    23    87 1   
    55    24    25 1   
    56    24    36 1   
    57    24    68 1   
    58    24    69 1   
    59    25    37 1   
    60    25    70 1   
    61    25    71 1   
    62    26    27 1   
    63    26    37 1   
    64    26    72 1   
    65    26    73 1   
    66    27    38 1   
    67    27    74 1   
    68    27    75 1   
    69    28    29 1   
    70    28    33 1   
    71    28    76 1   
    72    28    77 1   
    73    29    78 1   
    74    29    87 1   
    75    30    39 1   
    76    30    79 1   
    77    31    38 1   
    78    31    85 2   
    79    31    88 1   
    80    32    39 1   
    81    32    41 1   
    82    32    86 2   
    83    34    40 1   
    84    35    40 1   
    85    36    39 1   
    86    36    80 1   
    87    37    41 1   
    88    37    81 1   
    89    38    41 1   
    90    38    82 1   
    91    39    83 1   
    92    40    84 1   
    93    40    88 1   
    94    87    90 1   
    95    87    91 1   
    96    88    92 1   
@<TRIPOS>SUBSTRUCTURE
     1 BMB         1 TEMP              0 ****  ****    0 ROOT
