@<TRIPOS>MOLECULE
BMB
   92    96     1     0     0
SMALL
abcg2


@<TRIPOS>ATOM
      1 C            0.0260   -44.9930    26.3390 c          1 BMB       0.614100
      2 N            1.6110   -43.1520    26.4440 n7         1 BMB      -0.868400
      3 O            0.0660   -45.4640    25.2010 o          1 BMB      -0.623100
      4 CA           0.1890   -43.4930    26.6020 c3         1 BMB       0.104500
      5 CB          -0.8050   -42.6820    25.7650 c3         1 BMB      -0.098400
      6 CAA         -2.2560   -42.9740    26.1440 c3         1 BMB      -0.091100
      7 CAB          2.1180   -43.0160    25.0800 c3         1 BMB       0.145100
      8 CAF          6.6760   -42.8570    27.8400 ca         1 BMB      -0.114000
      9 CAG         -8.0290   -48.3720    33.4840 ca         1 BMB      -0.105000
     10 CAH         -4.9160   -54.6210    31.1900 ca         1 BMB      -0.105000
     11 CAI          7.3540   -43.8060    28.6040 ca         1 BMB      -0.113500
     12 CAJ          5.2960   -42.9530    27.7030 ca         1 BMB      -0.113500
     13 CAK         -7.1910   -47.6470    32.6420 ca         1 BMB      -0.113500
     14 CAL         -7.8170   -49.7360    33.6480 ca         1 BMB      -0.113500
     15 CAM         -3.9130   -53.9950    31.9210 ca         1 BMB      -0.113500
     16 CAN         -5.8750   -53.8520    30.5330 ca         1 BMB      -0.113500
     17 CAO          6.6530   -44.8350    29.2190 ca         1 BMB      -0.102000
     18 CAP          4.5950   -43.9830    28.3270 ca         1 BMB      -0.102000
     19 CAQ         -6.1550   -48.2830    31.9690 ca         1 BMB      -0.095250
     20 CAR         -6.7810   -50.3730    32.9710 ca         1 BMB      -0.095250
     21 CAS         -3.8720   -52.6050    31.9970 ca         1 BMB      -0.095250
     22 CAT         -5.8300   -52.4670    30.6130 ca         1 BMB      -0.095250
     23 CAW          1.0160   -47.4180    29.6410 c3         1 BMB      -0.075400
     24 CAX          0.5690   -49.4450    28.1890 c3         1 BMB      -0.083400
     25 CAY          0.0380   -49.9810    26.8620 c3         1 BMB      -0.081400
     26 CAZ         -2.3370   -50.9580    26.7370 c5         1 BMB      -0.093400
     27 CBA         -3.7260   -50.4290    27.0830 c5         1 BMB      -0.082400
     28 CBB          4.5420   -46.0630    29.7940 c3         1 BMB       0.204100
     29 NBD          3.1480   -46.1970    29.3920 n7         1 BMB      -0.865400
     30 NBE         -0.1370   -45.7470    27.4450 ns         1 BMB      -0.481900
     31 CBH         -3.3740   -49.6910    29.4920 c          1 BMB       0.596100
     32 CBI         -1.6820   -47.5700    27.9530 c          1 BMB       0.560000
     33 CBJ          5.2650   -44.9360    29.0930 ca         1 BMB      -0.086300
     34 CBK         -5.9410   -49.6560    32.1200 ca         1 BMB      -0.103800
     35 CBL         -4.8300   -51.8310    31.3500 ca         1 BMB      -0.103800
     36 CBM          0.8060   -47.9240    28.1980 c3         1 BMB      -0.061700
     37 CBO         -1.4660   -49.7030    26.6080 c5         1 BMB       0.123700
     38 CBP         -3.4230   -49.2520    28.0250 c5         1 BMB       0.029700
     39 CBQ         -0.3090   -47.1790    27.4240 c3         1 BMB       0.041700
     40 CBR         -4.7620   -50.3180    31.4200 c3         1 BMB       0.205300
     41 NBS         -2.1260   -48.7760    27.5660 n          1 BMB      -0.394800
     42 HN           1.7880   -42.2960    26.9560 hn         1 BMB       0.412000
     43 HA          -0.0360   -43.3110    27.6560 h1         1 BMB       0.057700
     44 HB          -0.5850   -41.6220    25.9210 hc         1 BMB       0.050700
     45 HBA         -0.6500   -42.8920    24.7050 hc         1 BMB       0.050700
     46 HAA         -2.9440   -42.3570    25.5640 hc         1 BMB       0.038033
     47 HAAA        -2.5140   -44.0200    25.9570 hc         1 BMB       0.038033
     48 HAAB        -2.4320   -42.7730    27.2030 hc         1 BMB       0.038033
     49 HAB          3.1750   -42.7530    25.1320 h1         1 BMB       0.037700
     50 HABA         2.0290   -43.9660    24.5550 h1         1 BMB       0.037700
     51 HABB         1.6070   -42.2490    24.4840 h1         1 BMB       0.037700
     52 HAG         -8.8380   -47.8780    34.0070 ha         1 BMB       0.113000
     53 HAH         -4.9510   -55.7020    31.1280 ha         1 BMB       0.113000
     54 HAI          8.4300   -43.7450    28.7140 ha         1 BMB       0.108000
     55 HAJ          4.7570   -42.2270    27.1060 ha         1 BMB       0.108000
     56 HAK         -7.3420   -46.5830    32.5090 ha         1 BMB       0.113750
     57 HAL         -8.4620   -50.3120    34.3000 ha         1 BMB       0.113750
     58 HAM         -3.1600   -54.5850    32.4280 ha         1 BMB       0.113750
     59 HAN         -6.6580   -54.3350    29.9610 ha         1 BMB       0.113750
     60 HAO          7.1880   -45.5750    29.8040 ha         1 BMB       0.123000
     61 HAP          3.5230   -44.0420    28.2050 ha         1 BMB       0.123000
     62 HAQ         -5.5070   -47.7090    31.3200 ha         1 BMB       0.119250
     63 HAR         -6.6300   -51.4350    33.1080 ha         1 BMB       0.119250
     64 HAS         -3.0820   -52.1150    32.5530 ha         1 BMB       0.119250
     65 HAT         -6.5790   -51.8730    30.1020 ha         1 BMB       0.119250
     66 HAW          0.5000   -48.0880    30.3310 hc         1 BMB       0.060700
     67 HAWA         0.5780   -46.4300    29.7920 hc         1 BMB       0.060700
     68 HAX         -0.1330   -49.7070    28.9830 hc         1 BMB       0.064200
     69 HAXA         1.5150   -49.9370    28.4270 hc         1 BMB       0.064200
     70 HAY          0.6260   -49.5730    26.0370 hc         1 BMB       0.049200
     71 HAYA         0.1800   -51.0620    26.8350 hc         1 BMB       0.049200
     72 HAZ         -1.9560   -51.5780    27.5520 hc         1 BMB       0.063200
     73 HAZA        -2.3160   -51.5500    25.8230 hc         1 BMB       0.063200
     74 HBAA        -4.2290   -50.0500    26.1920 hc         1 BMB       0.059200
     75 HBAB        -4.3700   -51.1750    27.5460 hc         1 BMB       0.059200
     76 HBB          4.5600   -45.8800    30.8750 h1         1 BMB       0.035700
     77 HBBA         5.1120   -46.9930    29.6390 h1         1 BMB       0.035700
     78 HNBD         3.1170   -46.3250    28.3850 hn         1 BMB       0.414000
     79 HNBE        -0.2340   -45.2720    28.3270 hn         1 BMB       0.330500
     80 HBM          1.7130   -47.7280    27.6190 hc         1 BMB       0.052700
     81 HBO         -1.5880   -49.2820    25.6070 h1         1 BMB       0.054700
     82 HBP         -4.1620   -48.4550    27.9340 h1         1 BMB       0.080700
     83 HBQ         -0.2420   -47.4680    26.3770 h1         1 BMB       0.094700
     84 HBR         -3.8600   -50.0580    31.9770 h1         1 BMB       0.091700
     85 OAD         -2.3290   -49.9900    30.0620 o          1 BMB      -0.598100
     86 OAE         -2.3160   -46.8430    28.7220 o          1 BMB      -0.580000
     87 CAV          2.4860   -47.3300    30.0400 c3         1 BMB       0.158800
     88 NBF         -4.5800   -49.7460    30.0880 ns         1 BMB      -0.500900
     89 HAF          7.2210   -42.0570    27.3550 ha         1 BMB       0.109000
     90 HAV          2.5630   -47.1810    31.1200 h1         1 BMB       0.029700
     91 HAVA         2.9900   -48.2840    29.8160 h1         1 BMB       0.029700
     92 HNBF        -5.4040   -49.5430    29.5410 hn         1 BMB       0.314500
@<TRIPOS>BOND
     1     1     3 2   
     2     1     4 1   
     3     1    30 1   
     4     2     4 1   
     5     2     7 1   
     6     2    42 1   
     7     4     5 1   
     8     4    43 1   
     9     5     6 1   
    10     5    44 1   
    11     5    45 1   
    12     6    46 1   
    13     6    47 1   
    14     6    48 1   
    15     7    49 1   
    16     7    50 1   
    17     7    51 1   
    18     8    11 ar  
    19     8    12 ar  
    20     8    89 1   
    21     9    13 ar  
    22     9    14 ar  
    23     9    52 1   
    24    10    15 ar  
    25    10    16 ar  
    26    10    53 1   
    27    11    17 ar  
    28    11    54 1   
    29    12    18 ar  
    30    12    55 1   
    31    13    19 ar  
    32    13    56 1   
    33    14    20 ar  
    34    14    57 1   
    35    15    21 ar  
    36    15    58 1   
    37    16    22 ar  
    38    16    59 1   
    39    17    33 ar  
    40    17    60 1   
    41    18    33 ar  
    42    18    61 1   
    43    19    34 ar  
    44    19    62 1   
    45    20    34 ar  
    46    20    63 1   
    47    21    35 ar  
    48    21    64 1   
    49    22    35 ar  
    50    22    65 1   
    51    23    36 1   
    52    23    66 1   
    53    23    67 1   
    54    23    87 1   
    55    24    25 1   
    56    24    36 1   
    57    24    68 1   
    58    24    69 1   
    59    25    37 1   
    60    25    70 1   
    61    25    71 1   
    62    26    27 1   
    63    26    37 1   
    64    26    72 1   
    65    26    73 1   
    66    27    38 1   
    67    27    74 1   
    68    27    75 1   
    69    28    29 1   
    70    28    33 1   
    71    28    76 1   
    72    28    77 1   
    73    29    78 1   
    74    29    87 1   
    75    30    39 1   
    76    30    79 1   
    77    31    38 1   
    78    31    85 2   
    79    31    88 1   
    80    32    39 1   
    81    32    41 1   
    82    32    86 2   
    83    34    40 1   
    84    35    40 1   
    85    36    39 1   
    86    36    80 1   
    87    37    41 1   
    88    37    81 1   
    89    38    41 1   
    90    38    82 1   
    91    39    83 1   
    92    40    84 1   
    93    40    88 1   
    94    87    90 1   
    95    87    91 1   
    96    88    92 1   
@<TRIPOS>SUBSTRUCTURE
     1 BMB         1 TEMP              0 ****  ****    0 ROOT
