@<TRIPOS>MOLECULE
BMC
   27    29     1     0     0
SMALL
No Charge or Current Charge


@<TRIPOS>ATOM
      1 C1          -8.9880     7.1520     6.2940 ca         1 BMC      -0.088000
      2 C2         -10.3420     6.8150     6.5610 ca         1 BMC      -0.063500
      3 C3         -11.3390     7.2150     5.6250 ca         1 BMC      -0.107000
      4 C4         -11.0000     7.9300     4.4560 ca         1 BMC      -0.102000
      5 C5          -9.6540     8.2340     4.2380 ca         1 BMC       0.023100
      6 C6          -8.6860     7.8590     5.1230 ca         1 BMC       0.040100
      7 O7          -7.4480     8.2560     4.7350 os         1 BMC      -0.355100
      8 C8          -7.7040     8.9030     3.4370 c5         1 BMC       0.372600
      9 O9          -9.1540     8.9160     3.1770 os         1 BMC      -0.362100
     10 C10        -10.7170     6.0690     7.7790 cc         1 BMC       0.256500
     11 C11         -9.8220     5.6250     8.7700 cc         1 BMC      -0.218000
     12 C12        -10.5480     4.9780     9.7310 cd         1 BMC      -0.165600
     13 N13        -11.8680     5.0640     9.2700 na         1 BMC       0.149800
     14 N14        -11.9660     5.7420     8.0590 nd         1 BMC      -0.580800
     15 C15        -10.0060     4.3450    10.9680 c          1 BMC       0.728600
     16 O16        -10.7800     3.8000    11.7410 o          1 BMC      -0.710000
     17 O17         -8.8000     4.3940    11.1660 o          1 BMC      -0.710000
     18 C18        -13.0750     4.5290     9.9240 c3         1 BMC       0.093900
     19 H1          -8.1830     6.8780     6.9680 ha         1 BMC       0.142000
     20 H3         -12.3850     6.9740     5.8020 ha         1 BMC       0.135000
     21 H4         -11.7630     8.2360     3.7440 ha         1 BMC       0.119000
     22 H8          -7.3270     9.9320     3.4600 h2         1 BMC       0.054200
     23 H8A         -7.2020     8.3340     2.6460 h2         1 BMC       0.054200
     24 H11         -8.7480     5.7680     8.7710 ha         1 BMC       0.144000
     25 H18        -13.9620     4.7540     9.3200 h1         1 BMC       0.050033
     26 H18A       -12.9810     3.4420    10.0320 h1         1 BMC       0.050033
     27 H18B       -13.1880     4.9860    10.9130 h1         1 BMC       0.050033
@<TRIPOS>BOND
     1     1     2 ar  
     2     1     6 ar  
     3     1    19 1   
     4     2     3 ar  
     5     2    10 1   
     6     3     4 ar  
     7     3    20 1   
     8     4     5 ar  
     9     4    21 1   
    10     5     6 ar  
    11     5     9 1   
    12     6     7 1   
    13     7     8 1   
    14     8     9 1   
    15     8    22 1   
    16     8    23 1   
    17    10    11 1   
    18    10    14 2   
    19    11    12 2   
    20    11    24 1   
    21    12    13 1   
    22    12    15 1   
    23    13    14 1   
    24    13    18 1   
    25    15    16 1   
    26    15    17 1   
    27    18    25 1   
    28    18    26 1   
    29    18    27 1   
@<TRIPOS>SUBSTRUCTURE
     1 BMC         1 TEMP              0 ****  ****    0 ROOT
