@<TRIPOS>MOLECULE
BMC
   27    29     1     0     0
SMALL
abcg2


@<TRIPOS>ATOM
      1 C1          -8.9690     7.2650     6.3440 ca         1 BMC      -0.088000
      2 C2         -10.2920     6.8290     6.5720 ca         1 BMC      -0.063500
      3 C3         -11.2840     7.1120     5.6280 ca         1 BMC      -0.107000
      4 C4         -11.0110     7.8210     4.4520 ca         1 BMC      -0.102000
      5 C5          -9.7110     8.2270     4.2540 ca         1 BMC       0.023100
      6 C6          -8.7170     7.9530     5.1830 ca         1 BMC       0.040100
      7 O7          -7.5320     8.5040     4.7640 os         1 BMC      -0.355100
      8 C8          -7.7630     8.9370     3.4130 c5         1 BMC       0.372600
      9 O9          -9.1870     8.9580     3.2170 os         1 BMC      -0.362100
     10 C10        -10.6060     6.0800     7.7950 cc         1 BMC       0.256500
     11 C11         -9.7230     5.5680     8.7650 cc         1 BMC      -0.218000
     12 C12        -10.5200     4.9410     9.7100 cd         1 BMC      -0.165600
     13 N13        -11.8050     5.1010     9.2830 na         1 BMC       0.149800
     14 N14        -11.8720     5.7870     8.1290 nd         1 BMC      -0.580800
     15 C15        -10.0930     4.2140    10.9630 c          1 BMC       0.728600
     16 O16        -10.9930     3.7060    11.6760 o          1 BMC      -0.710000
     17 O17         -8.8560     4.1850    11.1730 o          1 BMC      -0.710000
     18 C18        -13.0450     4.6500     9.8920 c3         1 BMC       0.093900
     19 H1          -8.1800     7.0750     7.0580 ha         1 BMC       0.142000
     20 H3         -12.2920     6.7670     5.8100 ha         1 BMC       0.135000
     21 H4         -11.7870     8.0370     3.7310 ha         1 BMC       0.119000
     22 H8          -7.3630     9.9400     3.2790 h2         1 BMC       0.054200
     23 H8A         -7.3130     8.2190     2.7210 h2         1 BMC       0.054200
     24 H11         -8.6500     5.6260     8.7910 ha         1 BMC       0.144000
     25 H18        -13.8530     4.9890     9.2490 h1         1 BMC       0.050033
     26 H18A       -13.0600     3.5650     9.9720 h1         1 BMC       0.050033
     27 H18B       -13.1570     5.0740    10.8870 h1         1 BMC       0.050033
@<TRIPOS>BOND
     1     1     2 ar  
     2     1     6 ar  
     3     1    19 1   
     4     2     3 ar  
     5     2    10 1   
     6     3     4 ar  
     7     3    20 1   
     8     4     5 ar  
     9     4    21 1   
    10     5     6 ar  
    11     5     9 1   
    12     6     7 1   
    13     7     8 1   
    14     8     9 1   
    15     8    22 1   
    16     8    23 1   
    17    10    11 1   
    18    10    14 2   
    19    11    12 2   
    20    11    24 1   
    21    12    13 1   
    22    12    15 1   
    23    13    14 1   
    24    13    18 1   
    25    15    16 1   
    26    15    17 1   
    27    18    25 1   
    28    18    26 1   
    29    18    27 1   
@<TRIPOS>SUBSTRUCTURE
     1 BMC         1 TEMP              0 ****  ****    0 ROOT
