@<TRIPOS>MOLECULE
BMD
   15    14     1     0     0
SMALL
abcg2


@<TRIPOS>ATOM
      1 C3          -0.3050    -0.0050     2.7760 c3         1 BMD      -0.093100
      2 C2           0.4170    -0.0230     1.4350 c3         1 BMD      -0.063400
      3 C1          -0.5670    -0.0540     0.2760 c3         1 BMD      -0.160400
      4 CA           0.0810    -0.0790    -1.0940 c          1 BMD       0.603100
      5 OA           1.2870    -0.2000    -1.2560 o          1 BMD      -0.605100
      6 NA          -0.7780     0.0360    -2.1200 nt         1 BMD      -0.616000
      7 H33         -0.9340    -0.8890     2.8990 hc         1 BMD       0.032033
      8 H32          0.4000     0.0170     3.6070 hc         1 BMD       0.032033
      9 H31         -0.9500     0.8720     2.8670 hc         1 BMD       0.032033
     10 H22          1.0590     0.8570     1.3530 hc         1 BMD       0.055200
     11 H21          1.0760    -0.8920     1.3850 hc         1 BMD       0.055200
     12 H12         -1.2150    -0.9330     0.3600 hc         1 BMD       0.053200
     13 H11         -1.2400     0.8080     0.3320 hc         1 BMD       0.053200
     14 HN1         -0.4500    -0.0040    -3.0710 hn         1 BMD       0.311500
     15 HN2         -1.7700     0.1130    -1.9750 hn         1 BMD       0.311500
@<TRIPOS>BOND
     1     1     2 1   
     2     1     7 1   
     3     1     8 1   
     4     1     9 1   
     5     2     3 1   
     6     2    10 1   
     7     2    11 1   
     8     3     4 1   
     9     3    12 1   
    10     3    13 1   
    11     4     5 2   
    12     4     6 1   
    13     6    14 1   
    14     6    15 1   
@<TRIPOS>SUBSTRUCTURE
     1 BMD         1 TEMP              0 ****  ****    0 ROOT
