@<TRIPOS>MOLECULE
BMD
   15    14     1     0     0
SMALL
No Charge or Current Charge


@<TRIPOS>ATOM
      1 C3          -0.3000    -0.0130     2.8270 c3         1 BMD      -0.093100
      2 C2           0.4160    -0.0360     1.4630 c3         1 BMD      -0.063400
      3 C1          -0.5660    -0.0190     0.2670 c3         1 BMD      -0.160400
      4 CA           0.0790    -0.0410    -1.1250 c          1 BMD       0.603100
      5 OA           1.2820    -0.0690    -1.3220 o          1 BMD      -0.605100
      6 NA          -0.7800    -0.0260    -2.1660 nt         1 BMD      -0.616000
      7 H33         -0.9520    -0.8880     2.9380 hc         1 BMD       0.032033
      8 H32          0.4330    -0.0260     3.6430 hc         1 BMD       0.032033
      9 H31         -0.9120     0.8910     2.9290 hc         1 BMD       0.032033
     10 H22          1.0860     0.8310     1.3960 hc         1 BMD       0.055200
     11 H21          1.0460    -0.9330     1.4050 hc         1 BMD       0.055200
     12 H12         -1.2830    -0.8480     0.3160 hc         1 BMD       0.053200
     13 H11         -1.2450     0.8410     0.3080 hc         1 BMD       0.053200
     14 HN1         -0.4170    -0.0390    -3.1070 hn         1 BMD       0.311500
     15 HN2         -1.7760    -0.0030    -1.9990 hn         1 BMD       0.311500
@<TRIPOS>BOND
     1     1     2 1   
     2     1     7 1   
     3     1     8 1   
     4     1     9 1   
     5     2     3 1   
     6     2    10 1   
     7     2    11 1   
     8     3     4 1   
     9     3    12 1   
    10     3    13 1   
    11     4     5 2   
    12     4     6 1   
    13     6    14 1   
    14     6    15 1   
@<TRIPOS>SUBSTRUCTURE
     1 BMD         1 TEMP              0 ****  ****    0 ROOT
