@<TRIPOS>MOLECULE
BME
   10     9     1     0     0
SMALL
abcg2


@<TRIPOS>ATOM
      1 C1          15.2770    16.5070    22.9430 c3         1 BME       0.173600
      2 C2          15.3140    15.0680    23.4030 c3         1 BME       0.076600
      3 O1          15.2710    16.5280    21.5350 oh         1 BME      -0.649000
      4 S2          16.7740    14.2370    22.6830 sh         1 BME      -0.423800
      5 H11         16.1430    17.0390    23.3530 h1         1 BME       0.026700
      6 H12         14.3780    16.9760    23.3640 h1         1 BME       0.026700
      7 H21         15.3850    15.0410    24.4890 h1         1 BME       0.064700
      8 H22         14.4060    14.5420    23.1060 h1         1 BME       0.064700
      9 HO1         15.3470    17.4410    21.2450 ho         1 BME       0.445000
     10 HS2         16.8440    13.2340    23.5660 hs         1 BME       0.194800
@<TRIPOS>BOND
     1     1     2 1   
     2     1     3 1   
     3     1     5 1   
     4     1     6 1   
     5     2     4 1   
     6     2     7 1   
     7     2     8 1   
     8     3     9 1   
     9     4    10 1   
@<TRIPOS>SUBSTRUCTURE
     1 BME         1 TEMP              0 ****  ****    0 ROOT
