@<TRIPOS>MOLECULE
BME
   10     9     1     0     0
SMALL
No Charge or Current Charge


@<TRIPOS>ATOM
      1 C1          15.2910    16.5370    22.9210 c3         1 BME       0.173600
      2 C2          15.4010    15.0750    23.4160 c3         1 BME       0.076600
      3 O1          15.1960    16.5860    21.4890 oh         1 BME      -0.649000
      4 S2          16.9600    14.1930    22.9120 sh         1 BME      -0.423800
      5 H11         16.1680    17.1000    23.2680 h1         1 BME       0.026700
      6 H12         14.4010    16.9950    23.3730 h1         1 BME       0.026700
      7 H21         15.3530    15.0740    24.5130 h1         1 BME       0.064700
      8 H22         14.5400    14.5040    23.0460 h1         1 BME       0.064700
      9 HO1         15.1650    17.5350    21.2370 ho         1 BME       0.445000
     10 HS2         16.6640    13.0140    23.5120 hs         1 BME       0.194800
@<TRIPOS>BOND
     1     1     2 1   
     2     1     3 1   
     3     1     5 1   
     4     1     6 1   
     5     2     4 1   
     6     2     7 1   
     7     2     8 1   
     8     3     9 1   
     9     4    10 1   
@<TRIPOS>SUBSTRUCTURE
     1 BME         1 TEMP              0 ****  ****    0 ROOT
