@<TRIPOS>MOLECULE
BMF
   48    50     1     0     0
SMALL
No Charge or Current Charge


@<TRIPOS>ATOM
      1 C10        -34.0670    12.0700    -2.9870 ca         1 BMF      -0.133500
      2 N12        -34.3150    12.4930    -0.6500 nc         1 BMF      -0.480800
      3 C15        -37.0470    11.5280    -0.7110 cc         1 BMF       0.173600
      4 C17        -39.1740    10.5610    -1.6250 c          1 BMF       0.647100
      5 C20        -42.0550    10.9090    -2.6750 c3         1 BMF      -0.124100
      6 C22        -36.2670    11.5480    -1.8460 cd         1 BMF      -0.219000
      7 C28        -31.8850    11.8720    -4.0690 ca         1 BMF      -0.095000
      8 C01        -31.5410    12.2450    -6.5470 c3         1 BMF      -0.052800
      9 C02        -32.4480    12.1990    -5.3170 ca         1 BMF      -0.086300
     10 C03        -33.8310    12.4920    -5.4040 ca         1 BMF       0.297000
     11 N04        -34.3780    12.8360    -6.6450 nu         1 BMF      -0.944100
     12 S05        -35.6670    13.8150    -6.9960 s6         1 BMF       1.237100
     13 C06        -35.3500    15.3280    -6.1150 c3         1 BMF      -0.357100
     14 O07        -36.8560    13.1590    -6.4480 o          1 BMF      -0.540500
     15 O08        -35.5520    14.0700    -8.4320 o          1 BMF      -0.540500
     16 C09        -34.6230    12.4230    -4.2380 ca         1 BMF      -0.095000
     17 C11        -34.9090    12.0470    -1.7700 cd         1 BMF       0.415500
     18 N13        -35.1470    12.4500     0.4530 na         1 BMF       0.124000
     19 C14        -36.4300    12.0100     0.4710 cc         1 BMF      -0.168000
     20 O18        -40.3740    10.2600    -1.0460 os         1 BMF      -0.457100
     21 C19        -41.4400     9.7450    -1.8710 c3         1 BMF       0.183600
     22 O21        -38.8830    10.3620    -2.7930 o          1 BMF      -0.509000
     23 N23        -36.8880    12.1260     1.7070 nd         1 BMF      -0.089000
     24 N24        -35.8680    12.6530     2.4920 nd         1 BMF      -0.371700
     25 C25        -34.8030    12.8490     1.7200 cc         1 BMF       0.375800
     26 C27        -32.6810    11.8180    -2.9150 ca         1 BMF      -0.079000
     27 H1         -42.9230    10.5550    -3.2430 hc         1 BMF       0.052367
     28 H2         -42.3900    11.7070    -2.0020 hc         1 BMF       0.052367
     29 H3         -41.3350    11.3290    -3.3860 hc         1 BMF       0.052367
     30 H4         -36.6360    11.1890    -2.7940 ha         1 BMF       0.172000
     31 H5         -33.4790    13.6400     3.2250 hc         1 BMF       0.065033
     32 H6         -32.6760    12.6790     1.9680 hc         1 BMF       0.065033
     33 H7         -33.2430    14.3210     1.6040 hc         1 BMF       0.065033
     34 H8         -30.8220    11.6580    -3.9880 ha         1 BMF       0.120000
     35 H9         -31.5020    13.2550    -6.9720 hc         1 BMF       0.049033
     36 H10        -30.5110    11.9560    -6.3050 hc         1 BMF       0.049033
     37 H11        -31.8940    11.5590    -7.3260 hc         1 BMF       0.049033
     38 H12        -33.7410    12.9620    -7.4180 hn         1 BMF       0.506000
     39 H13        -35.3250    15.0940    -5.0460 h1         1 BMF       0.105033
     40 H14        -34.3870    15.7160    -6.4610 h1         1 BMF       0.105033
     41 H15        -36.1650    16.0190    -6.3500 h1         1 BMF       0.105033
     42 H16        -35.6810    12.6500    -4.2930 ha         1 BMF       0.122000
     43 H17        -38.8180    11.1270     0.2450 hn         1 BMF       0.364500
     44 H18        -42.2220     9.3080    -1.2370 h1         1 BMF       0.068200
     45 H19        -41.0830     8.9560    -2.5470 h1         1 BMF       0.068200
     46 H20        -32.2150    11.5630    -1.9650 ha         1 BMF       0.133000
     47 N16        -38.3590    11.0770    -0.6540 ns         1 BMF      -0.383100
     48 C26        -33.4760    13.4040     2.1550 c3         1 BMF      -0.096400
@<TRIPOS>BOND
     1     1    16 ar  
     2     1    17 1   
     3     1    26 ar  
     4     2    17 2   
     5     2    18 1   
     6     3     6 2   
     7     3    19 1   
     8     3    47 1   
     9     4    20 1   
    10     4    22 2   
    11     4    47 1   
    12     5    21 1   
    13     5    27 1   
    14     5    28 1   
    15     5    29 1   
    16     6    17 1   
    17     6    30 1   
    18     7     9 ar  
    19     7    26 ar  
    20     7    34 1   
    21     8     9 1   
    22     8    35 1   
    23     8    36 1   
    24     8    37 1   
    25     9    10 ar  
    26    10    11 1   
    27    10    16 ar  
    28    11    12 1   
    29    11    38 1   
    30    12    13 1   
    31    12    14 2   
    32    12    15 2   
    33    13    39 1   
    34    13    40 1   
    35    13    41 1   
    36    16    42 1   
    37    18    19 1   
    38    18    25 1   
    39    19    23 2   
    40    20    21 1   
    41    21    44 1   
    42    21    45 1   
    43    23    24 1   
    44    24    25 2   
    45    25    48 1   
    46    26    46 1   
    47    31    48 1   
    48    32    48 1   
    49    33    48 1   
    50    43    47 1   
@<TRIPOS>SUBSTRUCTURE
     1 BMF         1 TEMP              0 ****  ****    0 ROOT
