@<TRIPOS>MOLECULE
BMF
   48    50     1     0     0
SMALL
abcg2


@<TRIPOS>ATOM
      1 C10        -33.9020    12.3180    -2.8430 ca         1 BMF      -0.133500
      2 N12        -34.1530    12.3180    -0.4860 nc         1 BMF      -0.480800
      3 C15        -36.9170    11.6080    -0.6840 cc         1 BMF       0.173600
      4 C17        -39.0870    11.1010    -1.7280 c          1 BMF       0.647100
      5 C20        -41.9670    11.9520    -2.6610 c3         1 BMF      -0.124100
      6 C22        -36.1260    11.7820    -1.7890 cd         1 BMF      -0.219000
      7 C28        -31.7440    12.2610    -3.9140 ca         1 BMF      -0.095000
      8 C01        -31.4270    12.8150    -6.3540 c3         1 BMF      -0.052800
      9 C02        -32.2900    12.6620    -5.1340 ca         1 BMF      -0.086300
     10 C03        -33.6700    12.9070    -5.1800 ca         1 BMF       0.297000
     11 N04        -34.2510    13.3530    -6.3930 nu         1 BMF      -0.944100
     12 S05        -35.5570    12.6580    -7.1300 s6         1 BMF       1.237100
     13 C06        -36.9170    13.7290    -6.7580 c3         1 BMF      -0.357100
     14 O07        -35.8100    11.3720    -6.5260 o          1 BMF      -0.540500
     15 O08        -35.3000    12.7390    -8.5500 o          1 BMF      -0.540500
     16 C09        -34.4600    12.7430    -4.0470 ca         1 BMF      -0.095000
     17 C11        -34.7490    12.1390    -1.6430 cd         1 BMF       0.415500
     18 N13        -34.9500    12.1270     0.5850 na         1 BMF       0.124000
     19 C14        -36.2830    11.7930     0.5790 cc         1 BMF      -0.168000
     20 O18        -40.3090    10.7920    -1.2840 os         1 BMF      -0.457100
     21 C19        -41.3550    10.6220    -2.2810 c3         1 BMF       0.183600
     22 O21        -38.7610    11.2110    -2.8890 o          1 BMF      -0.509000
     23 N23        -36.7310    11.7040     1.8140 nd         1 BMF      -0.089000
     24 N24        -35.6680    11.9880     2.6390 nd         1 BMF      -0.371700
     25 C25        -34.6040    12.2430     1.9040 cc         1 BMF       0.375800
     26 C27        -32.5260    12.0830    -2.7840 ca         1 BMF      -0.079000
     27 H1         -42.7880    11.7820    -3.3610 hc         1 BMF       0.052367
     28 H2         -42.3650    12.4600    -1.7810 hc         1 BMF       0.052367
     29 H3         -41.2340    12.5990    -3.1430 hc         1 BMF       0.052367
     30 H4         -36.5340    11.6300    -2.7720 ha         1 BMF       0.172000
     31 H5         -33.2430    12.6340     3.4610 hc         1 BMF       0.065033
     32 H6         -32.5130    11.8700     2.0330 hc         1 BMF       0.065033
     33 H7         -32.9500    13.5770     1.9840 hc         1 BMF       0.065033
     34 H8         -30.6800    12.0640    -3.8620 ha         1 BMF       0.120000
     35 H9         -31.3950    13.8540    -6.6970 hc         1 BMF       0.049033
     36 H10        -30.4060    12.5030    -6.1410 hc         1 BMF       0.049033
     37 H11        -31.8080    12.2130    -7.1830 hc         1 BMF       0.049033
     38 H12        -33.6300    13.7720    -7.0720 hn         1 BMF       0.506000
     39 H13        -37.0610    13.7530    -5.6800 h1         1 BMF       0.105033
     40 H14        -36.6860    14.7190    -7.1440 h1         1 BMF       0.105033
     41 H15        -37.7930    13.3100    -7.2530 h1         1 BMF       0.105033
     42 H16        -35.5140    12.9730    -4.1010 ha         1 BMF       0.122000
     43 H17        -38.6640    11.1600     0.2680 hn         1 BMF       0.364500
     44 H18        -42.0770     9.9720    -1.7920 h1         1 BMF       0.068200
     45 H19        -40.9320    10.1070    -3.1420 h1         1 BMF       0.068200
     46 H20        -32.0780    11.7490    -1.8600 ha         1 BMF       0.133000
     47 N16        -38.2480    11.2700    -0.6480 ns         1 BMF      -0.383100
     48 C26        -33.2480    12.6020     2.3740 c3         1 BMF      -0.096400
@<TRIPOS>BOND
     1     1    16 ar  
     2     1    17 1   
     3     1    26 ar  
     4     2    17 2   
     5     2    18 1   
     6     3     6 2   
     7     3    19 1   
     8     3    47 1   
     9     4    20 1   
    10     4    22 2   
    11     4    47 1   
    12     5    21 1   
    13     5    27 1   
    14     5    28 1   
    15     5    29 1   
    16     6    17 1   
    17     6    30 1   
    18     7     9 ar  
    19     7    26 ar  
    20     7    34 1   
    21     8     9 1   
    22     8    35 1   
    23     8    36 1   
    24     8    37 1   
    25     9    10 ar  
    26    10    11 1   
    27    10    16 ar  
    28    11    12 1   
    29    11    38 1   
    30    12    13 1   
    31    12    14 2   
    32    12    15 2   
    33    13    39 1   
    34    13    40 1   
    35    13    41 1   
    36    16    42 1   
    37    18    19 1   
    38    18    25 1   
    39    19    23 2   
    40    20    21 1   
    41    21    44 1   
    42    21    45 1   
    43    23    24 1   
    44    24    25 2   
    45    25    48 1   
    46    26    46 1   
    47    31    48 1   
    48    32    48 1   
    49    33    48 1   
    50    43    47 1   
@<TRIPOS>SUBSTRUCTURE
     1 BMF         1 TEMP              0 ****  ****    0 ROOT
