@<TRIPOS>MOLECULE
BMG
   44    46     1     0     0
SMALL
bcc


@<TRIPOS>ATOM
      1 C1          -0.3850    -1.1660     0.1510 c5         1 BMG      -0.000500
      2 C3          -0.9190     1.0010     0.8020 ce         1 BMG       0.126800
      3 C5          -1.8080    -1.1130     0.7510 c5         1 BMG       0.212500
      4 C6          -2.9280    -1.1540    -0.3120 c3         1 BMG      -0.208700
      5 C7          -2.9610     0.0790    -1.1810 c          1 BMG       0.585900
      6 C8          -4.3350    -1.3730     0.2810 c3         1 BMG       0.156100
      7 C11         -0.9980     2.4910     1.0610 c          1 BMG       0.924800
      8 C17          2.5000     1.5310    -0.0270 c5         1 BMG      -0.052600
      9 C18          2.5060     0.8840     1.3500 c5         1 BMG       0.053800
     10 C20          3.3070    -1.6110     1.5120 cc         1 BMG       0.529400
     11 C22          4.4460    -1.4810    -0.2610 cd         1 BMG       0.529400
     12 C9          -4.4850    -2.7430     0.9260 c3         1 BMG      -0.131100
     13 O14         -2.9340     0.0490    -2.3900 o          1 BMG      -0.529100
     14 O15         -4.5990    -0.3250     1.1920 oh         1 BMG      -0.598800
     15 C10         -0.1790    -2.0530    -1.0620 c3         1 BMG      -0.081100
     16 N4          -1.7630     0.1550     1.4740 nu         1 BMG      -0.709000
     17 O13          0.0510     3.1380     0.9140 o          1 BMG      -0.789800
     18 O12         -2.1220     2.9080     1.3940 o          1 BMG      -0.789800
     19 C2          -0.1060     0.3140    -0.0330 c2         1 BMG      -0.258600
     20 S16          1.1170     0.9400    -1.0920 ss         1 BMG      -0.191700
     21 C24          3.8050     1.0330    -0.6550 c5         1 BMG       0.053800
     22 N23          3.8930    -0.2980    -0.0660 na         1 BMG      -0.152200
     23 N19          3.1730    -0.3810     1.0540 na         1 BMG      -0.152200
     24 N21          4.0950    -2.3160     0.7100 nd         1 BMG      -0.673000
     25 H1           0.2700    -1.5460     0.9510 hc         1 BMG       0.008700
     26 H5          -1.9550    -1.9440     1.4420 h1         1 BMG       0.060700
     27 H6          -2.7520    -2.0080    -0.9720 hc         1 BMG       0.073700
     28 H7          -3.0900     1.0390    -0.6540 h4         1 BMG       0.037200
     29 H8          -5.0450    -1.3300    -0.5580 h1         1 BMG       0.036700
     30 H17          2.4710     2.6130     0.0490 h1         1 BMG       0.160700
     31 H18A         1.5210     0.7040     1.7710 h1         1 BMG       0.111200
     32 H20          2.8270    -1.9610     2.4120 h5         1 BMG       0.109100
     33 H22          5.0830    -1.7020    -1.1010 h5         1 BMG       0.109100
     34 H9          -5.5030    -2.8740     1.2980 hc         1 BMG       0.041700
     35 H9A         -4.3020    -3.5320     0.1960 hc         1 BMG       0.041700
     36 H9B         -3.8030    -2.8860     1.7640 hc         1 BMG       0.041700
     37 HO15        -5.4790    -0.4520     1.5620 ho         1 BMG       0.411000
     38 H10         -0.7230    -1.7000    -1.9380 hc         1 BMG       0.035033
     39 H10A         0.8780    -2.0810    -1.3290 hc         1 BMG       0.035033
     40 H10B        -0.4920    -3.0780    -0.8570 hc         1 BMG       0.035033
     41 HN4         -2.6360     0.5480     1.7960 hn         1 BMG       0.463800
     42 H24          3.7960     0.9630    -1.7400 h1         1 BMG       0.111200
     43 H24A         4.6660     1.6190    -0.3330 h1         1 BMG       0.111200
     44 H18          3.1140     1.4480     2.0580 h1         1 BMG       0.111200
@<TRIPOS>BOND
     1     1     3 1   
     2     1    15 1   
     3     1    19 1   
     4     1    25 1   
     5     2     7 1   
     6     2    16 1   
     7     2    19 2   
     8     3     4 1   
     9     3    16 1   
    10     3    26 1   
    11     4     5 1   
    12     4     6 1   
    13     4    27 1   
    14     5    13 2   
    15     5    28 1   
    16     6    12 1   
    17     6    14 1   
    18     6    29 1   
    19     7    17 1   
    20     7    18 1   
    21     8     9 1   
    22     8    20 1   
    23     8    21 1   
    24     8    30 1   
    25     9    23 1   
    26     9    31 1   
    27     9    44 1   
    28    10    23 1   
    29    10    24 2   
    30    10    32 1   
    31    11    22 2   
    32    11    24 1   
    33    11    33 1   
    34    12    34 1   
    35    12    35 1   
    36    12    36 1   
    37    14    37 1   
    38    15    38 1   
    39    15    39 1   
    40    15    40 1   
    41    16    41 1   
    42    19    20 1   
    43    21    22 1   
    44    21    42 1   
    45    21    43 1   
    46    22    23 1   
@<TRIPOS>SUBSTRUCTURE
     1 BMG         1 TEMP              0 ****  ****    0 ROOT
