@<TRIPOS>MOLECULE
BMG
   44    46     1     0     0
SMALL
No Charge or Current Charge


@<TRIPOS>ATOM
      1 C1          -0.5890    -1.3820     0.5350 c5         1 BMG      -0.000500
      2 C3          -0.9760     0.8690     0.7100 ce         1 BMG       0.126800
      3 C5          -2.1070    -1.1580     0.8910 c5         1 BMG       0.212500
      4 C6          -3.1620    -1.3000    -0.2540 c3         1 BMG      -0.208700
      5 C7          -2.8440    -0.4280    -1.4740 c          1 BMG       0.585900
      6 C8          -4.6360    -1.0600     0.1660 c3         1 BMG       0.179300
      7 C11         -1.0240     2.4130     0.5560 c          1 BMG       0.714200
      8 C17          2.3450     1.0610     0.5670 c5         1 BMG      -0.004700
      9 C18          2.8560    -0.0920     1.4760 c5         1 BMG       0.083100
     10 C20          4.4450    -1.8280     0.3990 cc         1 BMG       0.529400
     11 C22          5.2530    -0.3500    -0.9060 cd         1 BMG       0.529400
     12 C9          -5.1260    -1.9860     1.2960 c3         1 BMG      -0.131100
     13 O14         -2.6500    -0.8890    -2.5950 o          1 BMG      -0.529100
     14 O15         -4.8230     0.2990     0.5670 oh         1 BMG      -0.661000
     15 C10         -0.2700    -2.4960    -0.4910 c3         1 BMG      -0.081100
     16 N4          -2.0590     0.2400     1.3810 nu         1 BMG      -0.764200
     17 O13         -0.1570     3.0020    -0.0780 o          1 BMG      -0.684500
     18 O12         -1.9680     3.0090     1.0660 o          1 BMG      -0.684500
     19 C2          -0.0880     0.0020     0.1780 c2         1 BMG      -0.258600
     20 S16          1.3640     0.3060    -0.8330 ss         1 BMG      -0.239600
     21 C24          3.7110     1.5100    -0.0200 c5         1 BMG       0.083100
     22 N23          4.6390     0.3810     0.0810 na         1 BMG      -0.181500
     23 N19          4.1150    -0.5750     0.9090 na         1 BMG      -0.181500
     24 N21          5.1910    -1.7150    -0.7040 nd         1 BMG      -0.673000
     25 H1          -0.0730    -1.6960     1.4510 hc         1 BMG       0.008700
     26 H5          -2.3870    -1.8550     1.6930 h1         1 BMG       0.060700
     27 H6          -3.1180    -2.3360    -0.6070 hc         1 BMG       0.073700
     28 H7          -2.8150     0.6700    -1.2980 h4         1 BMG       0.037200
     29 H8          -5.2620    -1.2650    -0.7140 h1         1 BMG       0.036700
     30 H17          1.7960     1.8540     1.0920 h1         1 BMG       0.160700
     31 H18A         2.1230    -0.9030     1.5680 h1         1 BMG       0.111200
     32 H20          4.0730    -2.7480     0.8360 h5         1 BMG       0.109100
     33 H22          5.6900     0.1220    -1.7790 h5         1 BMG       0.109100
     34 H9          -6.2030    -1.8580     1.4570 hc         1 BMG       0.041700
     35 H9A         -4.9480    -3.0370     1.0370 hc         1 BMG       0.041700
     36 H9B         -4.6140    -1.7710     2.2410 hc         1 BMG       0.041700
     37 HO15        -5.7830     0.4140     0.7470 ho         1 BMG       0.450000
     38 H10         -0.6180    -2.2400    -1.4970 hc         1 BMG       0.035033
     39 H10A         0.8110    -2.6710    -0.5540 hc         1 BMG       0.035033
     40 H10B        -0.7390    -3.4430    -0.2000 hc         1 BMG       0.035033
     41 HN4         -2.9290     0.7860     1.4160 hn         1 BMG       0.519000
     42 H24          3.6150     1.8610    -1.0570 h1         1 BMG       0.111200
     43 H24A         4.1160     2.3510     0.5610 h1         1 BMG       0.111200
     44 H18          3.0460     0.2800     2.4920 h1         1 BMG       0.111200
@<TRIPOS>BOND
     1     1     3 1   
     2     1    15 1   
     3     1    19 1   
     4     1    25 1   
     5     2     7 1   
     6     2    16 1   
     7     2    19 2   
     8     3     4 1   
     9     3    16 1   
    10     3    26 1   
    11     4     5 1   
    12     4     6 1   
    13     4    27 1   
    14     5    13 2   
    15     5    28 1   
    16     6    12 1   
    17     6    14 1   
    18     6    29 1   
    19     7    17 1   
    20     7    18 1   
    21     8     9 1   
    22     8    20 1   
    23     8    21 1   
    24     8    30 1   
    25     9    23 1   
    26     9    31 1   
    27     9    44 1   
    28    10    23 1   
    29    10    24 2   
    30    10    32 1   
    31    11    22 2   
    32    11    24 1   
    33    11    33 1   
    34    12    34 1   
    35    12    35 1   
    36    12    36 1   
    37    14    37 1   
    38    15    38 1   
    39    15    39 1   
    40    15    40 1   
    41    16    41 1   
    42    19    20 1   
    43    21    22 1   
    44    21    42 1   
    45    21    43 1   
    46    22    23 1   
@<TRIPOS>SUBSTRUCTURE
     1 BMG         1 TEMP              0 ****  ****    0 ROOT
