@<TRIPOS>MOLECULE
BMH
   46    47     1     0     0
SMALL
abcg2


@<TRIPOS>ATOM
      1 O71         13.9670    48.2370    70.7150 o          1 BMH      -0.571500
      2 C7          14.8850    48.9340    70.2100 c2         1 BMH       0.341000
      3 O72         14.7200    49.9580    69.5010 o          1 BMH      -0.571500
      4 C6          16.3380    48.4460    70.5090 c3         1 BMH      -0.175000
      5 C61         17.3690    49.5540    70.2700 c3         1 BMH       0.049000
      6 O62         18.6950    48.9970    70.1590 oh         1 BMH      -0.332000
      7 C62         17.3350    50.5800    71.3960 c3         1 BMH      -0.233000
      8 C5          16.5490    47.0570    69.8640 c5         1 BMH       0.024000
      9 N4          17.6420    46.3090    70.5190 n7         1 BMH      -0.261000
     10 C3          18.3800    45.6080    69.5990 c2         1 BMH       0.079000
     11 C31         19.2310    44.4680    70.0740 c1         1 BMH      -0.090000
     12 O31         20.3810    44.3590    69.6120 o          1 BMH      -0.444000
     13 O32         18.1550    42.4660    71.7590 oh         1 BMH      -0.488000
     14 C1          16.8380    46.8980    68.3260 c5         1 BMH      -0.020000
     15 C11         17.0250    48.1630    67.4910 c3         1 BMH      -0.193000
     16 C2          18.0480    45.9580    68.3250 c2         1 BMH      -0.520000
     17 S21         18.8590    45.4520    66.8760 ss         1 BMH       0.155000
     18 C22         20.5660    46.1810    66.9660 c5         1 BMH      -0.301000
     19 C23         20.5940    47.5760    67.5950 c5         1 BMH      -0.000500
     20 N24         20.3550    48.4280    66.4240 na         1 BMH      -0.080500
     21 C25         19.9520    49.6500    66.0960 c2         1 BMH       0.035500
     22 N28         20.6030    47.7700    65.2740 na         1 BMH      -0.080500
     23 C27         21.0650    46.3990    65.5300 c5         1 BMH      -0.000500
     24 C29         20.3420    48.6110    64.2790 c2         1 BMH       0.035500
     25 N26         19.9360    49.7890    64.7640 n2         1 BMH      -0.158000
     26 H6          16.3370    48.2270    71.5830 hc         1 BMH       0.086000
     27 H61         17.1210    50.0580    69.3380 h1         1 BMH       0.083000
     28 H62         19.2920    49.7310    69.9670 ho         1 BMH       0.146000
     29 H621        17.6000    50.1090    72.3460 hc         1 BMH       0.070000
     30 H622        18.0440    51.3890    71.2010 hc         1 BMH       0.070000
     31 H623        16.3400    51.0170    71.4880 hc         1 BMH       0.070000
     32 H5          15.6160    46.5280    70.0690 h1         1 BMH       0.106000
     33 HN4         17.4340    45.8510    71.3950 hn         1 BMH       0.223000
     34 H31         18.5300    43.2180    71.1550 ho         1 BMH       0.215000
     35 H32         18.7970    41.7490    71.6940 ho         1 BMH       0.215000
     36 H1          15.9800    46.3760    67.8890 hc         1 BMH       0.079000
     37 H111        17.8630    48.7560    67.8440 hc         1 BMH       0.060000
     38 H112        17.2170    47.8830    66.4540 hc         1 BMH       0.060000
     39 H113        16.1310    48.7850    67.5180 hc         1 BMH       0.060000
     40 H22         21.1940    45.4960    67.5260 h1         1 BMH       0.189000
     41 H231        21.5750    47.8170    68.0040 h1         1 BMH       0.146000
     42 H232        19.8240    47.7400    68.3460 h1         1 BMH       0.146000
     43 H25         19.6800    50.3950    66.8250 h5         1 BMH       0.242500
     44 H271        20.6330    45.7220    64.7970 h1         1 BMH       0.146000
     45 H272        22.1530    46.3800    65.4630 h1         1 BMH       0.146000
     46 H29         20.4500    48.3440    63.2400 h5         1 BMH       0.242500
@<TRIPOS>BOND
     1     1     2 1   
     2     2     3 1   
     3     2     4 1   
     4     4     5 1   
     5     4     8 1   
     6     4    26 1   
     7     5     6 1   
     8     5     7 1   
     9     5    27 1   
    10     6    28 1   
    11     7    29 1   
    12     7    30 1   
    13     7    31 1   
    14     8     9 1   
    15     8    14 1   
    16     8    32 1   
    17     9    10 1   
    18     9    33 1   
    19    10    11 1   
    20    10    16 1   
    21    11    12 1   
    22    13    34 1   
    23    13    35 1   
    24    14    15 1   
    25    14    16 1   
    26    14    36 1   
    27    15    37 1   
    28    15    38 1   
    29    15    39 1   
    30    16    17 1   
    31    17    18 1   
    32    18    19 1   
    33    18    23 1   
    34    18    40 1   
    35    19    20 1   
    36    19    41 1   
    37    19    42 1   
    38    20    21 1   
    39    20    22 1   
    40    21    25 1   
    41    21    43 1   
    42    22    23 1   
    43    22    24 1   
    44    23    44 1   
    45    23    45 1   
    46    24    25 1   
    47    24    46 1   
@<TRIPOS>SUBSTRUCTURE
     1 BMH         1 TEMP              0 ****  ****    0 ROOT
