@<TRIPOS>MOLECULE
BMH
   46    47     1     0     0
SMALL
No Charge or Current Charge


@<TRIPOS>ATOM
      1 O71         13.9820    47.5360    71.3190 o          1 BMH      -0.571500
      2 C7          14.7070    48.2950    70.6880 c          1 BMH       0.341000
      3 O72         14.2010    48.9680    69.7990 o          1 BMH      -0.571500
      4 C6          16.2020    48.3550    70.9850 c3         1 BMH      -0.175000
      5 C61         16.7000    49.8240    71.1960 c3         1 BMH       0.049000
      6 O62         18.0770    49.8440    71.5700 oh         1 BMH      -0.332000
      7 C62         15.9230    50.5750    72.3000 c3         1 BMH      -0.233000
      8 C5          16.9930    47.4350    69.9870 c5         1 BMH       0.024000
      9 N4          18.4130    47.1540    70.3510 n7         1 BMH      -0.261000
     10 C3          19.0850    46.8840    69.1400 c2         1 BMH       0.079000
     11 C31         19.3460    45.7010    69.6990 c1         1 BMH      -0.090000
     12 O31         19.5990    44.6510    70.1730 o          1 BMH      -0.444000
     13 O32         18.2350    41.6970    71.0790 oh         1 BMH      -0.488000
     14 C1          17.0770    47.7490    68.4210 c5         1 BMH      -0.020000
     15 C11         17.2010    49.2250    67.9810 c3         1 BMH      -0.193000
     16 C2          18.3510    46.9990    68.0360 c2         1 BMH      -0.520000
     17 S21         18.6610    46.3830    66.3680 ss         1 BMH       0.155000
     18 C22         20.4750    46.0380    66.6110 c5         1 BMH      -0.301000
     19 C23         21.2260    47.3910    66.7150 c5         1 BMH      -0.000500
     20 N24         21.5760    47.8390    65.3620 na         1 BMH      -0.080500
     21 C25         20.8450    48.8940    64.7860 c2         1 BMH       0.035500
     22 N28         21.4770    46.7950    64.5050 na         1 BMH      -0.080500
     23 C27         21.0570    45.5970    65.2440 c5         1 BMH      -0.000500
     24 C29         20.6910    47.2420    63.4260 c2         1 BMH       0.035500
     25 N26         20.3630    48.4780    63.6540 n2         1 BMH      -0.158000
     26 H6          16.3320    47.8810    71.9660 hc         1 BMH       0.086000
     27 H61         16.5640    50.3880    70.2660 h1         1 BMH       0.083000
     28 H62         18.3330    50.7770    71.6820 ho         1 BMH       0.146000
     29 H621        15.9950    50.0470    73.2590 hc         1 BMH       0.070000
     30 H622        16.3250    51.5860    72.4350 hc         1 BMH       0.070000
     31 H623        14.8630    50.6720    72.0400 hc         1 BMH       0.070000
     32 H5          16.4790    46.4650    70.0520 h1         1 BMH       0.106000
     33 HN4         18.4620    46.5140    71.1440 hn         1 BMH       0.223000
     34 H31         18.5680    42.5360    70.7070 ho         1 BMH       0.215000
     35 H32         18.5570    41.6710    71.9990 ho         1 BMH       0.215000
     36 H1          16.2010    47.3320    67.9070 hc         1 BMH       0.079000
     37 H111        18.0210    49.7310    68.5020 hc         1 BMH       0.060000
     38 H112        17.4000    49.2950    66.9050 hc         1 BMH       0.060000
     39 H113        16.2740    49.7770    68.1690 hc         1 BMH       0.060000
     40 H22         20.6520    45.3280    67.4290 h1         1 BMH       0.189000
     41 H231        22.1540    47.2710    67.2920 h1         1 BMH       0.146000
     42 H232        20.6370    48.1530    67.2440 h1         1 BMH       0.146000
     43 H25         20.6900    49.8720    65.2530 h5         1 BMH       0.242500
     44 H271        20.3430    44.9960    64.6630 h1         1 BMH       0.146000
     45 H272        21.9390    44.9590    65.3920 h1         1 BMH       0.146000
     46 H29         20.3910    46.6220    62.5740 h5         1 BMH       0.242500
@<TRIPOS>BOND
     1     1     2 1   
     2     2     3 1   
     3     2     4 1   
     4     4     5 1   
     5     4     8 1   
     6     4    26 1   
     7     5     6 1   
     8     5     7 1   
     9     5    27 1   
    10     6    28 1   
    11     7    29 1   
    12     7    30 1   
    13     7    31 1   
    14     8     9 1   
    15     8    14 1   
    16     8    32 1   
    17     9    10 1   
    18     9    33 1   
    19    10    11 1   
    20    10    16 1   
    21    11    12 1   
    22    13    34 1   
    23    13    35 1   
    24    14    15 1   
    25    14    16 1   
    26    14    36 1   
    27    15    37 1   
    28    15    38 1   
    29    15    39 1   
    30    16    17 1   
    31    17    18 1   
    32    18    19 1   
    33    18    23 1   
    34    18    40 1   
    35    19    20 1   
    36    19    41 1   
    37    19    42 1   
    38    20    21 1   
    39    20    22 1   
    40    21    25 1   
    41    21    43 1   
    42    22    23 1   
    43    22    24 1   
    44    23    44 1   
    45    23    45 1   
    46    24    25 1   
    47    24    46 1   
@<TRIPOS>SUBSTRUCTURE
     1 BMH         1 TEMP              0 ****  ****    0 ROOT
