@<TRIPOS>MOLECULE
BMI
   49    53     1     0     0
SMALL
No Charge or Current Charge


@<TRIPOS>ATOM
      1 C            3.0320    -3.5330     6.8010 c          1 BMI       0.590200
      2 O            2.8110    -4.4730     6.0530 o          1 BMI      -0.619000
      3 N            3.5070     0.2080     7.0670 nu         1 BMI      -0.783200
      4 N1           3.2040    -3.7640     8.1360 ns         1 BMI      -0.367100
      5 C1           3.3850    -1.1330     7.3210 cc         1 BMI       0.337000
      6 C2           3.5580    -1.5100     8.6930 cc         1 BMI      -0.361000
      7 C3           3.4650    -2.8170     9.0930 cd         1 BMI       0.011600
      8 C4           3.2690     1.3440     7.9890 c3         1 BMI       0.171500
      9 C5           2.4420     5.0460     7.3500 ca         1 BMI      -0.067000
     10 C6           2.7280     3.8430     8.0170 ca         1 BMI      -0.160000
     11 C7           2.3950     5.0280     5.9470 ca         1 BMI      -0.159000
     12 C8           2.9570     2.6710     7.2680 ca         1 BMI       0.329300
     13 N2           2.9100     2.6610     5.9080 nb         1 BMI      -0.665000
     14 C9           2.6340     3.8210     5.2680 ca         1 BMI       0.352900
     15 C10          3.1350    -2.1160     6.3690 cd         1 BMI      -0.429800
     16 C11          1.6660     0.7540    -1.3480 cc         1 BMI      -0.223000
     17 C12          2.5310    -0.1210     0.7820 ca         1 BMI      -0.022200
     18 C13          2.7810     0.2860     2.1150 ca         1 BMI      -0.073000
     19 N3           2.4850     0.8250    -0.2480 na         1 BMI      -0.065300
     20 C14          3.2570     1.9620    -0.3110 cc         1 BMI       0.394400
     21 N4           2.9600     2.6290    -1.4220 nd         1 BMI      -0.678000
     22 C15          1.9780     1.8860    -2.0620 cd         1 BMI       0.223900
     23 C16          2.8210    -0.6860     3.1230 ca         1 BMI       0.107400
     24 N5           2.7170    -2.7090     3.9990 na         1 BMI      -0.295600
     25 C17          2.9740    -1.7450     4.9760 cd         1 BMI       0.541100
     26 N6           3.0460    -0.4940     4.4730 nc         1 BMI      -0.655100
     27 C18          2.6230    -2.0020     2.8320 ca         1 BMI      -0.085200
     28 C19          2.3720    -2.4620     1.5320 ca         1 BMI      -0.052300
     29 C20          2.3270    -1.4980     0.5010 ca         1 BMI      -0.118000
     30 C21          2.1580    -3.9410     1.2410 c3         1 BMI      -0.045800
     31 HN           3.3540     0.4280     6.0690 hn         1 BMI       0.583000
     32 HN1          3.1290    -4.7390     8.3980 hn         1 BMI       0.333500
     33 H2           3.7780    -0.7530     9.4370 ha         1 BMI       0.199000
     34 H3           3.5850    -3.1860    10.1110 h4         1 BMI       0.200000
     35 H41          4.1550     1.4960     8.6200 h1         1 BMI       0.053700
     36 H42          2.4260     1.1120     8.6530 h1         1 BMI       0.053700
     37 H5           2.2620     5.9640     7.9050 ha         1 BMI       0.122000
     38 H6           2.7730     3.8150     9.1020 ha         1 BMI       0.123000
     39 H7           2.1780     5.9330     5.3860 ha         1 BMI       0.130000
     40 H9           2.6030     3.7810     4.1800 h4         1 BMI       0.027100
     41 H13          2.9310     1.3300     2.3730 ha         1 BMI       0.135000
     42 H14          3.9910     2.2320     0.4400 h5         1 BMI       0.055100
     43 H15          1.5480     2.2090    -3.0020 h4         1 BMI       0.035100
     44 HN5          2.6240    -3.7020     4.1690 hn         1 BMI       0.395000
     45 H20          2.1450    -1.8220    -0.5210 ha         1 BMI       0.123000
     46 H211         3.0380    -4.5280     1.5280 hc         1 BMI       0.046033
     47 H212         1.2970    -4.3300     1.7980 hc         1 BMI       0.046033
     48 H213         1.9720    -4.1230     0.1760 hc         1 BMI       0.046033
     49 H11          0.9530    -0.0380    -1.5330 h4         1 BMI       0.158000
@<TRIPOS>BOND
     1     1     2 2   
     2     1     4 1   
     3     1    15 1   
     4     3     5 1   
     5     3     8 1   
     6     3    31 1   
     7     4     7 1   
     8     4    32 1   
     9     5     6 1   
    10     5    15 2   
    11     6     7 2   
    12     6    33 1   
    13     7    34 1   
    14     8    12 1   
    15     8    35 1   
    16     8    36 1   
    17     9    10 ar  
    18     9    11 ar  
    19     9    37 1   
    20    10    12 ar  
    21    10    38 1   
    22    11    14 ar  
    23    11    39 1   
    24    12    13 ar  
    25    13    14 ar  
    26    14    40 1   
    27    15    25 1   
    28    16    19 1   
    29    16    22 2   
    30    16    49 1   
    31    17    18 ar  
    32    17    19 1   
    33    17    29 ar  
    34    18    23 ar  
    35    18    41 1   
    36    19    20 1   
    37    20    21 2   
    38    20    42 1   
    39    21    22 1   
    40    22    43 1   
    41    23    26 1   
    42    23    27 ar  
    43    24    25 1   
    44    24    27 1   
    45    24    44 1   
    46    25    26 2   
    47    27    28 ar  
    48    28    29 ar  
    49    28    30 1   
    50    29    45 1   
    51    30    46 1   
    52    30    47 1   
    53    30    48 1   
@<TRIPOS>SUBSTRUCTURE
     1 BMI         1 TEMP              0 ****  ****    0 ROOT
