@<TRIPOS>MOLECULE
BMI
   49    53     1     0     0
SMALL
abcg2


@<TRIPOS>ATOM
      1 C            3.0820    -3.4610     6.7560 c          1 BMI       0.590200
      2 O            3.0390    -4.4280     5.9840 o          1 BMI      -0.619000
      3 N            3.0110     0.2340     7.0270 nu         1 BMI      -0.783200
      4 N1           3.2080    -3.7080     8.1070 ns         1 BMI      -0.367100
      5 C1           3.0740    -1.0560     7.3520 cc         1 BMI       0.337000
      6 C2           3.2070    -1.4360     8.7230 cc         1 BMI      -0.361000
      7 C3           3.2680    -2.7460     9.0470 cd         1 BMI       0.011600
      8 C4           3.0640     1.3130     7.9760 c3         1 BMI       0.171500
      9 C5           2.9020     5.0320     7.3750 ca         1 BMI      -0.067000
     10 C6           2.9910     3.8190     8.0340 ca         1 BMI      -0.160000
     11 C7           2.7870     5.0380     5.9890 ca         1 BMI      -0.159000
     12 C8           2.9630     2.6470     7.2810 ca         1 BMI       0.329300
     13 N2           2.8540     2.6530     5.9630 nb         1 BMI      -0.665000
     14 C9           2.7680     3.8210     5.3330 ca         1 BMI       0.352900
     15 C10          3.0130    -2.0810     6.3740 cd         1 BMI      -0.429800
     16 C11          1.4910     0.7120    -1.2990 cc         1 BMI      -0.223000
     17 C12          2.4500    -0.1570     0.8310 ca         1 BMI      -0.022200
     18 C13          2.5440     0.2890     2.1370 ca         1 BMI      -0.073000
     19 N3           2.3280     0.7870    -0.2160 na         1 BMI      -0.065300
     20 C14          3.0210     1.9470    -0.3370 cc         1 BMI       0.394400
     21 N4           2.6810     2.6070    -1.4110 nd         1 BMI      -0.678000
     22 C15          1.7240     1.8450    -2.0200 cd         1 BMI       0.223900
     23 C16          2.6820    -0.6800     3.1280 ca         1 BMI       0.107400
     24 N5           2.8190    -2.6970     3.9830 na         1 BMI      -0.295600
     25 C17          2.8780    -1.7620     4.9700 cd         1 BMI       0.541100
     26 N6           2.7960    -0.5370     4.4810 nc         1 BMI      -0.655100
     27 C18          2.6920    -2.0420     2.7910 ca         1 BMI      -0.085200
     28 C19          2.5830    -2.5030     1.4820 ca         1 BMI      -0.052300
     29 C20          2.4720    -1.5220     0.5080 ca         1 BMI      -0.118000
     30 C21          2.6040    -3.9650     1.1590 c3         1 BMI      -0.045800
     31 HN           2.9080     0.4720     6.0360 hn         1 BMI       0.583000
     32 HN1          3.2590    -4.6770     8.3890 hn         1 BMI       0.333500
     33 H2           3.2570    -0.7030     9.5110 ha         1 BMI       0.199000
     34 H3           3.3680    -3.0840    10.0680 h4         1 BMI       0.200000
     35 H41          3.9980     1.2910     8.5500 h1         1 BMI       0.053700
     36 H42          2.2530     1.2380     8.7090 h1         1 BMI       0.053700
     37 H5           2.9230     5.9590     7.9320 ha         1 BMI       0.122000
     38 H6           3.0800     3.7760     9.1120 ha         1 BMI       0.123000
     39 H7           2.7130     5.9620     5.4330 ha         1 BMI       0.130000
     40 H9           2.6800     3.7800     4.2530 h4         1 BMI       0.027100
     41 H13          2.4970     1.3420     2.3860 ha         1 BMI       0.135000
     42 H14          3.7720     2.2430     0.3800 h5         1 BMI       0.055100
     43 H15          1.2490     2.1510    -2.9400 h4         1 BMI       0.035100
     44 HN5          2.8690    -3.6900     4.1700 hn         1 BMI       0.395000
     45 H20          2.4130    -1.8190    -0.5320 ha         1 BMI       0.123000
     46 H211         3.5540    -4.4200     1.4450 hc         1 BMI       0.046033
     47 H212         1.8170    -4.4990     1.6930 hc         1 BMI       0.046033
     48 H213         2.4590    -4.1360     0.0930 hc         1 BMI       0.046033
     49 H11          0.8070    -0.1080    -1.4440 h4         1 BMI       0.158000
@<TRIPOS>BOND
     1     1     2 2   
     2     1     4 1   
     3     1    15 1   
     4     3     5 1   
     5     3     8 1   
     6     3    31 1   
     7     4     7 1   
     8     4    32 1   
     9     5     6 1   
    10     5    15 2   
    11     6     7 2   
    12     6    33 1   
    13     7    34 1   
    14     8    12 1   
    15     8    35 1   
    16     8    36 1   
    17     9    10 ar  
    18     9    11 ar  
    19     9    37 1   
    20    10    12 ar  
    21    10    38 1   
    22    11    14 ar  
    23    11    39 1   
    24    12    13 ar  
    25    13    14 ar  
    26    14    40 1   
    27    15    25 1   
    28    16    19 1   
    29    16    22 2   
    30    16    49 1   
    31    17    18 ar  
    32    17    19 1   
    33    17    29 ar  
    34    18    23 ar  
    35    18    41 1   
    36    19    20 1   
    37    20    21 2   
    38    20    42 1   
    39    21    22 1   
    40    22    43 1   
    41    23    26 1   
    42    23    27 ar  
    43    24    25 1   
    44    24    27 1   
    45    24    44 1   
    46    25    26 2   
    47    27    28 ar  
    48    28    29 ar  
    49    28    30 1   
    50    29    45 1   
    51    30    46 1   
    52    30    47 1   
    53    30    48 1   
@<TRIPOS>SUBSTRUCTURE
     1 BMI         1 TEMP              0 ****  ****    0 ROOT
