@<TRIPOS>MOLECULE
BMJ
   46    45     1     0     0
SMALL
bcc


@<TRIPOS>ATOM
      1 C10         -3.9080    -0.3460     0.0540 c3         1 BMJ      -0.073400
      2 C11         -5.1450     0.5200    -0.1510 c3         1 BMJ      -0.072400
      3 C12         -6.4830    -0.1710     0.1230 c3         1 BMJ      -0.058700
      4 C13         -6.7130    -1.3530    -0.8140 c3         1 BMJ      -0.085100
      5 C14         -7.6210     0.8510     0.0320 c3         1 BMJ      -0.073400
      6 C15         -8.9780     0.3360     0.4920 c3         1 BMJ      -0.087100
      7 C01          7.6150     0.1610     0.0520 c          1 BMJ       0.926600
      8 C02          6.2670    -0.5690     0.1910 c3         1 BMJ      -0.204400
      9 C03          5.0210     0.2780    -0.0110 c3         1 BMJ      -0.053400
     10 C04          3.7310    -0.5180     0.1510 c3         1 BMJ      -0.079400
     11 C05          2.4760     0.3220    -0.0480 c3         1 BMJ      -0.075400
     12 C06          1.1850    -0.4700     0.1150 c3         1 BMJ      -0.075400
     13 C07         -0.0680     0.3740    -0.0820 c3         1 BMJ      -0.075400
     14 C08         -1.3610    -0.4140     0.0820 c3         1 BMJ      -0.074400
     15 C09         -2.6100     0.4350    -0.1150 c3         1 BMJ      -0.075400
     16 O01          8.6360    -0.5370     0.2310 o          1 BMJ      -0.848800
     17 O02          7.5960     1.3770    -0.2250 o          1 BMJ      -0.848800
     18 H1          -3.9360    -0.7900     1.0560 hc         1 BMJ       0.036700
     19 H2          -3.9090    -1.1860    -0.6480 hc         1 BMJ       0.036700
     20 H3          -5.0690     1.3940     0.5060 hc         1 BMJ       0.036200
     21 H4          -5.1490     0.9130    -1.1750 hc         1 BMJ       0.036200
     22 H5          -6.4580    -0.5510     1.1530 hc         1 BMJ       0.043700
     23 H6          -6.7170    -1.0220    -1.8570 hc         1 BMJ       0.030700
     24 H7          -5.9380    -2.1120    -0.7100 hc         1 BMJ       0.030700
     25 H8          -7.6680    -1.8420    -0.6210 hc         1 BMJ       0.030700
     26 H9          -7.3520     1.7240     0.6350 hc         1 BMJ       0.035700
     27 H10         -7.6950     1.2100    -1.0010 hc         1 BMJ       0.035700
     28 H11         -9.3320    -0.4930    -0.1210 hc         1 BMJ       0.029367
     29 H12         -8.9370    -0.0130     1.5250 hc         1 BMJ       0.029367
     30 H13         -9.7330     1.1220     0.4390 hc         1 BMJ       0.029367
     31 H14          6.2610    -1.4070    -0.5160 hc         1 BMJ       0.014700
     32 H15          6.2360    -1.0390     1.1810 hc         1 BMJ       0.014700
     33 H16          5.0200     1.1100     0.7000 hc         1 BMJ       0.037700
     34 H17          5.0390     0.7340    -1.0050 hc         1 BMJ       0.037700
     35 H18          3.7250    -1.3520    -0.5610 hc         1 BMJ       0.023700
     36 H19          3.7070    -0.9760     1.1470 hc         1 BMJ       0.023700
     37 H20          2.4810     1.1540     0.6650 hc         1 BMJ       0.033700
     38 H21          2.4980     0.7780    -1.0440 hc         1 BMJ       0.033700
     39 H22          1.1780    -1.3020    -0.5980 hc         1 BMJ       0.031700
     40 H23          1.1630    -0.9260     1.1110 hc         1 BMJ       0.031700
     41 H24         -0.0590     1.2070     0.6300 hc         1 BMJ       0.034700
     42 H25         -0.0460     0.8300    -1.0780 hc         1 BMJ       0.034700
     43 H26         -1.3710    -1.2470    -0.6300 hc         1 BMJ       0.034700
     44 H27         -1.3840    -0.8690     1.0790 hc         1 BMJ       0.034700
     45 H28         -2.5880     0.8870    -1.1130 hc         1 BMJ       0.035700
     46 H29         -2.5950     1.2700     0.5950 hc         1 BMJ       0.035700
@<TRIPOS>BOND
     1     1     2 1   
     2     1    15 1   
     3     1    18 1   
     4     1    19 1   
     5     2     3 1   
     6     2    20 1   
     7     2    21 1   
     8     3     4 1   
     9     3     5 1   
    10     3    22 1   
    11     4    23 1   
    12     4    24 1   
    13     4    25 1   
    14     5     6 1   
    15     5    26 1   
    16     5    27 1   
    17     6    28 1   
    18     6    29 1   
    19     6    30 1   
    20     7     8 1   
    21     7    16 1   
    22     7    17 1   
    23     8     9 1   
    24     8    31 1   
    25     8    32 1   
    26     9    10 1   
    27     9    33 1   
    28     9    34 1   
    29    10    11 1   
    30    10    35 1   
    31    10    36 1   
    32    11    12 1   
    33    11    37 1   
    34    11    38 1   
    35    12    13 1   
    36    12    39 1   
    37    12    40 1   
    38    13    14 1   
    39    13    41 1   
    40    13    42 1   
    41    14    15 1   
    42    14    43 1   
    43    14    44 1   
    44    15    45 1   
    45    15    46 1   
@<TRIPOS>SUBSTRUCTURE
     1 BMJ         1 TEMP              0 ****  ****    0 ROOT
