@<TRIPOS>MOLECULE
BMJ
   46    45     1     0     0
SMALL
No Charge or Current Charge


@<TRIPOS>ATOM
      1 C10         -3.9260    -0.3310     0.0240 c3         1 BMJ      -0.073400
      2 C11         -5.1860     0.5560    -0.1290 c3         1 BMJ      -0.072400
      3 C12         -6.5410    -0.1720     0.1050 c3         1 BMJ      -0.058700
      4 C13         -6.7830    -1.3090    -0.9230 c3         1 BMJ      -0.085100
      5 C14         -7.7080     0.8550     0.1280 c3         1 BMJ      -0.073400
      6 C15         -9.0790     0.2800     0.5450 c3         1 BMJ      -0.087100
      7 C01          7.6480     0.2070     0.0390 c          1 BMJ       0.716000
      8 C02          6.3800    -0.6570     0.1620 c3         1 BMJ      -0.204400
      9 C03          5.1160     0.2250     0.0150 c3         1 BMJ      -0.053400
     10 C04          3.7990    -0.5750     0.1280 c3         1 BMJ      -0.079400
     11 C05          2.5400     0.3070    -0.0190 c3         1 BMJ      -0.075400
     12 C06          1.2240    -0.4930     0.0930 c3         1 BMJ      -0.075400
     13 C07         -0.0350     0.3890    -0.0540 c3         1 BMJ      -0.075400
     14 C08         -1.3510    -0.4120     0.0590 c3         1 BMJ      -0.074400
     15 C09         -2.6100     0.4700    -0.0890 c3         1 BMJ      -0.075400
     16 O01          8.1010     0.7150     1.0540 o          1 BMJ      -0.743500
     17 O02          8.1190     0.3860    -1.0730 o          1 BMJ      -0.743500
     18 H1          -3.9570    -0.8370     0.9970 hc         1 BMJ       0.036700
     19 H2          -3.9250    -1.1100    -0.7460 hc         1 BMJ       0.036700
     20 H3          -5.1060     1.3850     0.5860 hc         1 BMJ       0.036200
     21 H4          -5.1870     1.0090    -1.1290 hc         1 BMJ       0.036200
     22 H5          -6.4940    -0.6340     1.1000 hc         1 BMJ       0.043700
     23 H6          -6.8270    -0.9090    -1.9430 hc         1 BMJ       0.030700
     24 H7          -5.9860    -2.0600    -0.8820 hc         1 BMJ       0.030700
     25 H8          -7.7220    -1.8360    -0.7200 hc         1 BMJ       0.030700
     26 H9          -7.4580     1.6610     0.8290 hc         1 BMJ       0.035700
     27 H10         -7.8030     1.3230    -0.8600 hc         1 BMJ       0.035700
     28 H11         -9.4650    -0.4180    -0.2070 hc         1 BMJ       0.029367
     29 H12         -9.0050    -0.2460     1.5050 hc         1 BMJ       0.029367
     30 H13         -9.8100     1.0890     0.6550 hc         1 BMJ       0.029367
     31 H14          6.3320    -1.3870    -0.6550 hc         1 BMJ       0.014700
     32 H15          6.3170    -1.1070     1.1610 hc         1 BMJ       0.014700
     33 H16          5.1290     1.0060     0.7860 hc         1 BMJ       0.037700
     34 H17          5.1440     0.7370    -0.9560 hc         1 BMJ       0.037700
     35 H18          3.7840    -1.3540    -0.6440 hc         1 BMJ       0.023700
     36 H19          3.7690    -1.0850     1.0990 hc         1 BMJ       0.023700
     37 H20          2.5540     1.0870     0.7530 hc         1 BMJ       0.033700
     38 H21          2.5690     0.8170    -0.9910 hc         1 BMJ       0.033700
     39 H22          1.2090    -1.2730    -0.6790 hc         1 BMJ       0.031700
     40 H23          1.1940    -1.0030     1.0640 hc         1 BMJ       0.031700
     41 H24         -0.0210     1.1680     0.7180 hc         1 BMJ       0.034700
     42 H25         -0.0060     0.8990    -1.0250 hc         1 BMJ       0.034700
     43 H26         -1.3650    -1.1920    -0.7130 hc         1 BMJ       0.034700
     44 H27         -1.3800    -0.9220     1.0300 hc         1 BMJ       0.034700
     45 H28         -2.5810     0.9800    -1.0600 hc         1 BMJ       0.035700
     46 H29         -2.5950     1.2500     0.6830 hc         1 BMJ       0.035700
@<TRIPOS>BOND
     1     1     2 1   
     2     1    15 1   
     3     1    18 1   
     4     1    19 1   
     5     2     3 1   
     6     2    20 1   
     7     2    21 1   
     8     3     4 1   
     9     3     5 1   
    10     3    22 1   
    11     4    23 1   
    12     4    24 1   
    13     4    25 1   
    14     5     6 1   
    15     5    26 1   
    16     5    27 1   
    17     6    28 1   
    18     6    29 1   
    19     6    30 1   
    20     7     8 1   
    21     7    16 1   
    22     7    17 1   
    23     8     9 1   
    24     8    31 1   
    25     8    32 1   
    26     9    10 1   
    27     9    33 1   
    28     9    34 1   
    29    10    11 1   
    30    10    35 1   
    31    10    36 1   
    32    11    12 1   
    33    11    37 1   
    34    11    38 1   
    35    12    13 1   
    36    12    39 1   
    37    12    40 1   
    38    13    14 1   
    39    13    41 1   
    40    13    42 1   
    41    14    15 1   
    42    14    43 1   
    43    14    44 1   
    44    15    45 1   
    45    15    46 1   
@<TRIPOS>SUBSTRUCTURE
     1 BMJ         1 TEMP              0 ****  ****    0 ROOT
