@<TRIPOS>MOLECULE
BMK
   32    35     1     0     0
SMALL
No Charge or Current Charge


@<TRIPOS>ATOM
      1 C7           0.0480     2.2420     1.6260 c3         1 BMK      -0.069100
      2 C           -0.0030     0.8310     0.9940 c5         1 BMK       0.265800
      3 C5           1.2450     0.4170     0.1890 ca         1 BMK      -0.104300
      4 C10          2.1460     1.3530    -0.3690 ca         1 BMK      -0.093000
      5 C14          3.2540     0.9190    -1.1170 ca         1 BMK      -0.113000
      6 C15          3.4740    -0.4510    -1.3240 ca         1 BMK      -0.105000
      7 C11          2.5840    -1.3920    -0.7830 ca         1 BMK      -0.110000
      8 C6           1.4720    -0.9680    -0.0340 ca         1 BMK      -0.072300
      9 C4           0.5100    -2.0170     0.5660 c6         1 BMK      -0.064100
     10 C1          -0.7160    -1.3720     1.2760 c5         1 BMK       0.206800
     11 N           -0.2020    -0.2030     2.0570 n7         1 BMK      -0.836400
     12 C3          -1.6210    -0.7080     0.2670 ca         1 BMK      -0.083300
     13 C9          -2.7150    -1.2260    -0.4410 ca         1 BMK      -0.090000
     14 C13         -3.3980    -0.3730    -1.3320 ca         1 BMK      -0.111000
     15 C12         -2.9790     0.9680    -1.4980 ca         1 BMK      -0.110000
     16 C8          -1.8760     1.4660    -0.7740 ca         1 BMK      -0.086000
     17 C2          -1.2140     0.6000     0.1110 ca         1 BMK      -0.071300
     18 H1           0.0740     3.0280     0.8630 hc         1 BMK       0.044367
     19 H2          -0.8370     2.4240     2.2480 hc         1 BMK       0.044367
     20 H3           0.9330     2.3590     2.2620 hc         1 BMK       0.044367
     21 H4           1.9960     2.4200    -0.2350 ha         1 BMK       0.113000
     22 H5           3.9410     1.6490    -1.5410 ha         1 BMK       0.113000
     23 H6           4.3320    -0.7840    -1.9040 ha         1 BMK       0.113000
     24 H7           2.7590    -2.4540    -0.9460 ha         1 BMK       0.110000
     25 H8           0.1610    -2.7020    -0.2190 hc         1 BMK       0.056700
     26 H9           1.0600    -2.6340     1.2900 hc         1 BMK       0.056700
     27 H10         -1.2420    -2.1130     1.8980 h1         1 BMK       0.081700
     28 H11          0.7030    -0.4350     2.4770 hn         1 BMK       0.416000
     29 H13         -3.0280    -2.2590    -0.3070 ha         1 BMK       0.114000
     30 H14         -4.2490    -0.7480    -1.8950 ha         1 BMK       0.111000
     31 H15         -3.5090     1.6180    -2.1910 ha         1 BMK       0.111000
     32 H16         -1.5450     2.4930    -0.9060 ha         1 BMK       0.115000
@<TRIPOS>BOND
     1     1     2 1   
     2     1    18 1   
     3     1    19 1   
     4     1    20 1   
     5     2     3 1   
     6     2    11 1   
     7     2    17 1   
     8     3     4 ar  
     9     3     8 ar  
    10     4     5 ar  
    11     4    21 1   
    12     5     6 ar  
    13     5    22 1   
    14     6     7 ar  
    15     6    23 1   
    16     7     8 ar  
    17     7    24 1   
    18     8     9 1   
    19     9    10 1   
    20     9    25 1   
    21     9    26 1   
    22    10    11 1   
    23    10    12 1   
    24    10    27 1   
    25    11    28 1   
    26    12    13 ar  
    27    12    17 ar  
    28    13    14 ar  
    29    13    29 1   
    30    14    15 ar  
    31    14    30 1   
    32    15    16 ar  
    33    15    31 1   
    34    16    17 ar  
    35    16    32 1   
@<TRIPOS>SUBSTRUCTURE
     1 BMK         1 TEMP              0 ****  ****    0 ROOT
