@<TRIPOS>MOLECULE
BMK
   32    35     1     0     0
SMALL
bcc


@<TRIPOS>ATOM
      1 C7           0.0940     2.2140     1.6290 c3         1 BMK      -0.069100
      2 C            0.0010     0.8300     1.0180 c5         1 BMK       0.265800
      3 C5           1.2190     0.4160     0.1920 ca         1 BMK      -0.104300
      4 C10          2.1030     1.3360    -0.3640 ca         1 BMK      -0.111000
      5 C14          3.1830     0.9190    -1.1300 ca         1 BMK      -0.131000
      6 C15          3.3870    -0.4350    -1.3520 ca         1 BMK      -0.123000
      7 C11          2.5100    -1.3590    -0.8020 ca         1 BMK      -0.128000
      8 C6           1.4250    -0.9540    -0.0310 ca         1 BMK      -0.072300
      9 C4           0.5100    -1.9960     0.5710 c6         1 BMK      -0.064100
     10 C1          -0.6900    -1.3590     1.2820 c5         1 BMK       0.206800
     11 N           -0.2660    -0.1850     2.0470 n7         1 BMK      -0.781200
     12 C3          -1.6080    -0.7120     0.2800 ca         1 BMK      -0.083300
     13 C9          -2.6590    -1.2240    -0.4540 ca         1 BMK      -0.108000
     14 C13         -3.3150    -0.3810    -1.3510 ca         1 BMK      -0.129000
     15 C12         -2.9080     0.9390    -1.5070 ca         1 BMK      -0.128000
     16 C8          -1.8360     1.4460    -0.7730 ca         1 BMK      -0.104000
     17 C2          -1.2020     0.6080     0.1220 ca         1 BMK      -0.071300
     18 H1           0.1550     2.9960     0.8730 hc         1 BMK       0.044367
     19 H2          -0.7920     2.4040     2.2350 hc         1 BMK       0.044367
     20 H3           0.9730     2.3010     2.2690 hc         1 BMK       0.044367
     21 H4           1.9570     2.3960    -0.2010 ha         1 BMK       0.131000
     22 H5           3.8620     1.6500    -1.5490 ha         1 BMK       0.131000
     23 H6           4.2260    -0.7720    -1.9470 ha         1 BMK       0.131000
     24 H7           2.6710    -2.4180    -0.9710 ha         1 BMK       0.128000
     25 H8           0.1760    -2.6960    -0.1990 hc         1 BMK       0.056700
     26 H9           1.0790    -2.5920     1.2930 hc         1 BMK       0.056700
     27 H10         -1.1930    -2.0910     1.9180 h1         1 BMK       0.081700
     28 H11          0.5730    -0.3780     2.5850 hn         1 BMK       0.360800
     29 H13         -2.9760    -2.2540    -0.3370 ha         1 BMK       0.132000
     30 H14         -4.1510    -0.7560    -1.9260 ha         1 BMK       0.129000
     31 H15         -3.4290     1.5800    -2.2070 ha         1 BMK       0.129000
     32 H16         -1.5200     2.4740    -0.9070 ha         1 BMK       0.133000
@<TRIPOS>BOND
     1     1     2 1   
     2     1    18 1   
     3     1    19 1   
     4     1    20 1   
     5     2     3 1   
     6     2    11 1   
     7     2    17 1   
     8     3     4 ar  
     9     3     8 ar  
    10     4     5 ar  
    11     4    21 1   
    12     5     6 ar  
    13     5    22 1   
    14     6     7 ar  
    15     6    23 1   
    16     7     8 ar  
    17     7    24 1   
    18     8     9 1   
    19     9    10 1   
    20     9    25 1   
    21     9    26 1   
    22    10    11 1   
    23    10    12 1   
    24    10    27 1   
    25    11    28 1   
    26    12    13 ar  
    27    12    17 ar  
    28    13    14 ar  
    29    13    29 1   
    30    14    15 ar  
    31    14    30 1   
    32    15    16 ar  
    33    15    31 1   
    34    16    17 ar  
    35    16    32 1   
@<TRIPOS>SUBSTRUCTURE
     1 BMK         1 TEMP              0 ****  ****    0 ROOT
