@<TRIPOS>MOLECULE
BML
   13    13     1     0     0
SMALL
abcg2


@<TRIPOS>ATOM
      1 O1           0.1880     0.1880     3.9670 oh         1 BML      -0.529100
      2 C1           0.0940     0.1140     2.6280 ca         1 BML       0.153100
      3 C2          -1.1260     0.1300     1.9560 ca         1 BML      -0.178000
      4 C3          -1.1650     0.0480     0.5720 ca         1 BML      -0.043500
      5 C4           0.0180    -0.0490    -0.1430 ca         1 BML      -0.058900
      6 C5           1.2400    -0.0660     0.5150 ca         1 BML      -0.043500
      7 C6           1.2770     0.0160     1.8970 ca         1 BML      -0.178000
      8 BR4         -0.0320    -0.1590    -2.0300 br         1 BML      -0.099100
      9 HO1         -0.6870     0.2660     4.3640 ho         1 BML       0.468000
     10 H2          -2.0550     0.2070     2.5080 ha         1 BML       0.125000
     11 H3          -2.1230     0.0620     0.0700 ha         1 BML       0.129500
     12 H5           2.1690    -0.1430    -0.0340 ha         1 BML       0.129500
     13 H6           2.2290     0.0040     2.4120 ha         1 BML       0.125000
@<TRIPOS>BOND
     1     1     2 1   
     2     1     9 1   
     3     2     3 ar  
     4     2     7 ar  
     5     3     4 ar  
     6     3    10 1   
     7     4     5 ar  
     8     4    11 1   
     9     5     6 ar  
    10     5     8 1   
    11     6     7 ar  
    12     6    12 1   
    13     7    13 1   
@<TRIPOS>SUBSTRUCTURE
     1 BML         1 TEMP              0 ****  ****    0 ROOT
