@<TRIPOS>MOLECULE
BML
   13    13     1     0     0
SMALL
No Charge or Current Charge


@<TRIPOS>ATOM
      1 O1           0.1680     0.1960     4.0010 oh         1 BML      -0.529100
      2 C1           0.1130     0.1160     2.6420 ca         1 BML       0.153100
      3 C2          -1.1260     0.1330     1.9800 ca         1 BML      -0.178000
      4 C3          -1.1740     0.0500     0.5760 ca         1 BML      -0.043500
      5 C4           0.0190    -0.0500    -0.1600 ca         1 BML      -0.058900
      6 C5           1.2600    -0.0680     0.5020 ca         1 BML      -0.043500
      7 C6           1.3030     0.0160     1.9050 ca         1 BML      -0.178000
      8 Br4         -0.0440    -0.1640    -2.0680 br         1 BML      -0.099100
      9 HO1         -0.7480     0.2590     4.3460 ho         1 BML       0.468000
     10 H2          -2.0530     0.2100     2.5440 ha         1 BML       0.125000
     11 H3          -2.1330     0.0630     0.0620 ha         1 BML       0.129500
     12 H5           2.1830    -0.1450    -0.0690 ha         1 BML       0.129500
     13 H6           2.2610     0.0020     2.4200 ha         1 BML       0.125000
@<TRIPOS>BOND
     1     1     2 1   
     2     1     9 1   
     3     2     3 ar  
     4     2     7 ar  
     5     3     4 ar  
     6     3    10 1   
     7     4     5 ar  
     8     4    11 1   
     9     5     6 ar  
    10     5     8 1   
    11     6     7 ar  
    12     6    12 1   
    13     7    13 1   
@<TRIPOS>SUBSTRUCTURE
     1 BML         1 TEMP              0 ****  ****    0 ROOT
