@<TRIPOS>MOLECULE
BMM
    5     4     1     0     0
SMALL
bcc


@<TRIPOS>ATOM
      1 C1          -0.5440     0.5730    -0.8190 c3         1 BMM      -0.013700
      2 BR          -1.9760     1.7110    -0.1270 br         1 BMM      -0.185400
      3 H11          0.1680     1.2000    -1.3480 h1         1 BMM       0.066700
      4 H12         -0.0630     0.0760     0.0180 h1         1 BMM       0.066700
      5 H13         -0.9810    -0.1580    -1.4940 h1         1 BMM       0.066700
@<TRIPOS>BOND
     1     1     2 1   
     2     1     3 1   
     3     1     4 1   
     4     1     5 1   
@<TRIPOS>SUBSTRUCTURE
     1 BMM         1 TEMP              0 ****  ****    0 ROOT
