@<TRIPOS>MOLECULE
BMM
    5     4     1     0     0
SMALL
No Charge or Current Charge


@<TRIPOS>ATOM
      1 C1          -0.5360     0.5670    -0.8230 c3         1 BMM       0.068900
      2 Br          -1.9960     1.7260    -0.1170 br         1 BMM      -0.268000
      3 H11          0.1780     1.2070    -1.3550 h1         1 BMM       0.066700
      4 H12         -0.0560     0.0690     0.0290 h1         1 BMM       0.066700
      5 H13         -0.9860    -0.1680    -1.5030 h1         1 BMM       0.066700
@<TRIPOS>BOND
     1     1     2 1   
     2     1     3 1   
     3     1     4 1   
     4     1     5 1   
@<TRIPOS>SUBSTRUCTURE
     1 BMM         1 TEMP              0 ****  ****    0 ROOT
