@<TRIPOS>MOLECULE
BMO
   68    73     1     0     0
SMALL
No Charge or Current Charge


@<TRIPOS>ATOM
      1 N17         -5.6300     0.8230    -4.5220 n7         1 BMO      -0.870400
      2 C19         -4.3360     1.0700    -5.1830 c3         1 BMO       0.158300
      3 C36         -4.5550     1.4240    -6.6680 c3         1 BMO      -0.106900
      4 C22         -3.3130     2.0280    -7.3610 c3         1 BMO       0.222800
      5 N20         -2.2770     1.0170    -7.6620 nu         1 BMO      -0.961200
      6 C21         -1.5420     0.3090    -6.6980 ca         1 BMO       0.400500
      7 C27         -0.5970     0.9600    -5.8710 ca         1 BMO      -0.160250
      8 C26         -0.2820     2.3350    -6.0160 ca         1 BMO      -0.079000
      9 C25          0.6510     2.9480    -5.1650 ca         1 BMO      -0.132750
     10 C24          1.2880     2.1980    -4.1700 ca         1 BMO      -0.088250
     11 C23          1.0000     0.8300    -4.0400 ca         1 BMO      -0.106250
     12 C28          0.0690     0.1980    -4.8850 ca         1 BMO       0.326750
     13 N29         -0.1470    -1.1230    -4.7340 nb         1 BMO      -0.708500
     14 C31         -1.0190    -1.7590    -5.5400 ca         1 BMO       0.326750
     15 C30         -1.7450    -1.0810    -6.5450 ca         1 BMO      -0.160250
     16 C34         -2.6630    -1.8040    -7.3510 ca         1 BMO      -0.079000
     17 C35         -2.8340    -3.1850    -7.1700 ca         1 BMO      -0.132750
     18 C32         -2.1010    -3.8580    -6.1840 ca         1 BMO      -0.088250
     19 C33         -1.2070    -3.1430    -5.3730 ca         1 BMO      -0.106250
     20 C1          -5.5340     0.4200    -3.1070 c3         1 BMO       0.158300
     21 C2          -6.9370     0.3060    -2.4750 c3         1 BMO      -0.106900
     22 C3          -7.8050    -0.8540    -3.0090 c3         1 BMO       0.222800
     23 N1          -7.4350    -2.1500    -2.4030 nu         1 BMO      -0.961200
     24 C4          -6.3830    -2.9630    -2.8550 ca         1 BMO       0.400500
     25 C5          -6.4790    -3.6580    -4.0830 ca         1 BMO      -0.160250
     26 C6          -7.6330    -3.5890    -4.9040 ca         1 BMO      -0.079000
     27 C7          -7.6900    -4.2910    -6.1180 ca         1 BMO      -0.132750
     28 C8          -6.6050    -5.0790    -6.5210 ca         1 BMO      -0.088250
     29 C9          -5.4690    -5.1680    -5.7010 ca         1 BMO      -0.106250
     30 C10         -5.3930    -4.4680    -4.4820 ca         1 BMO       0.326750
     31 N2          -4.2860    -4.6040    -3.7270 nb         1 BMO      -0.708500
     32 C11         -4.1870    -3.9510    -2.5540 ca         1 BMO       0.326750
     33 C12         -3.0130    -4.1060    -1.7930 ca         1 BMO      -0.106250
     34 C13         -2.8540    -3.4520    -0.5610 ca         1 BMO      -0.088250
     35 C14         -3.8790    -2.6300    -0.0760 ca         1 BMO      -0.132750
     36 C15         -5.0570    -2.4620    -0.8200 ca         1 BMO      -0.079000
     37 C16         -5.2210    -3.1200    -2.0660 ca         1 BMO      -0.160250
     38 H171        -6.1780     1.6890    -4.5710 hn         1 BMO       0.405000
     39 H191        -3.8130     1.9000    -4.6880 h1         1 BMO       0.037450
     40 H192        -3.6970     0.1810    -5.1080 h1         1 BMO       0.037450
     41 H361        -4.9040     0.5420    -7.2170 hc         1 BMO       0.052450
     42 H362        -5.3560     2.1710    -6.7320 hc         1 BMO       0.052450
     43 H221        -3.6420     2.4870    -8.3040 h1         1 BMO       0.059200
     44 H222        -2.9150     2.8370    -6.7360 h1         1 BMO       0.059200
     45 HN20        -2.4850     0.4500    -8.4830 hn         1 BMO       0.477500
     46 H26         -0.7380     2.9380    -6.7960 ha         1 BMO       0.105250
     47 H25          0.8830     4.0040    -5.2830 ha         1 BMO       0.115750
     48 H24          2.0130     2.6690    -3.5090 ha         1 BMO       0.113750
     49 H23          1.5080     0.2470    -3.2770 ha         1 BMO       0.130250
     50 H34         -3.2520    -1.3140    -8.1210 ha         1 BMO       0.105250
     51 H35         -3.5370    -3.7320    -7.7940 ha         1 BMO       0.115750
     52 H32         -2.2310    -4.9280    -6.0390 ha         1 BMO       0.113750
     53 H33         -0.6500    -3.6680    -4.6020 ha         1 BMO       0.130250
     54 H11         -5.0000    -0.5340    -3.0100 h1         1 BMO       0.037450
     55 H12A        -4.9650     1.1720    -2.5430 h1         1 BMO       0.037450
     56 H21         -6.8380     0.2170    -1.3870 hc         1 BMO       0.052450
     57 H22         -7.4720     1.2470    -2.6510 hc         1 BMO       0.052450
     58 H31         -8.8490    -0.6330    -2.7470 h1         1 BMO       0.059200
     59 H32A        -7.7500    -0.8930    -4.1060 h1         1 BMO       0.059200
     60 HN1         -7.5270    -2.1680    -1.3890 hn         1 BMO       0.477500
     61 H6          -8.4990    -3.0020    -4.6100 ha         1 BMO       0.105250
     62 H7          -8.5780    -4.2280    -6.7420 ha         1 BMO       0.115750
     63 H8          -6.6450    -5.6280    -7.4600 ha         1 BMO       0.113750
     64 H9          -4.6360    -5.7920    -6.0100 ha         1 BMO       0.130250
     65 H12         -2.2160    -4.7430    -2.1660 ha         1 BMO       0.130250
     66 H13         -1.9390    -3.5830     0.0130 ha         1 BMO       0.113750
     67 H14         -3.7610    -2.1200     0.8780 ha         1 BMO       0.115750
     68 H15         -5.8280    -1.8130    -0.4150 ha         1 BMO       0.105250
@<TRIPOS>BOND
     1     1     2 1   
     2     1    20 1   
     3     1    38 1   
     4     2     3 1   
     5     2    39 1   
     6     2    40 1   
     7     3     4 1   
     8     3    41 1   
     9     3    42 1   
    10     4     5 1   
    11     4    43 1   
    12     4    44 1   
    13     5     6 1   
    14     5    45 1   
    15     6     7 ar  
    16     6    15 ar  
    17     7     8 ar  
    18     7    12 ar  
    19     8     9 ar  
    20     8    46 1   
    21     9    10 ar  
    22     9    47 1   
    23    10    11 ar  
    24    10    48 1   
    25    11    12 ar  
    26    11    49 1   
    27    12    13 ar  
    28    13    14 ar  
    29    14    15 ar  
    30    14    19 ar  
    31    15    16 ar  
    32    16    17 ar  
    33    16    50 1   
    34    17    18 ar  
    35    17    51 1   
    36    18    19 ar  
    37    18    52 1   
    38    19    53 1   
    39    20    21 1   
    40    20    54 1   
    41    20    55 1   
    42    21    22 1   
    43    21    56 1   
    44    21    57 1   
    45    22    23 1   
    46    22    58 1   
    47    22    59 1   
    48    23    24 1   
    49    23    60 1   
    50    24    25 ar  
    51    24    37 ar  
    52    25    26 ar  
    53    25    30 ar  
    54    26    27 ar  
    55    26    61 1   
    56    27    28 ar  
    57    27    62 1   
    58    28    29 ar  
    59    28    63 1   
    60    29    30 ar  
    61    29    64 1   
    62    30    31 ar  
    63    31    32 ar  
    64    32    33 ar  
    65    32    37 ar  
    66    33    34 ar  
    67    33    65 1   
    68    34    35 ar  
    69    34    66 1   
    70    35    36 ar  
    71    35    67 1   
    72    36    37 ar  
    73    36    68 1   
@<TRIPOS>SUBSTRUCTURE
     1 BMO         1 TEMP              0 ****  ****    0 ROOT
