@<TRIPOS>MOLECULE
BMO
   68    73     1     0     0
SMALL
bcc


@<TRIPOS>ATOM
      1 N17         -5.8010     0.9760    -4.3440 n7         1 BMO      -0.815200
      2 C19         -4.4780     1.2590    -4.8570 c3         1 BMO       0.158300
      3 C36         -4.5030     1.4530    -6.3660 c3         1 BMO      -0.106900
      4 C22         -3.1190     1.6620    -6.9670 c3         1 BMO       0.222800
      5 N20         -2.2950     0.4650    -6.8230 nu         1 BMO      -0.767600
      6 C21         -1.2120     0.3700    -6.0040 ca         1 BMO       0.262100
      7 C27         -0.1720     1.3280    -6.0480 ca         1 BMO      -0.225550
      8 C26         -0.1030     2.3500    -7.0340 ca         1 BMO      -0.097000
      9 C25          0.9130     3.2590    -7.0370 ca         1 BMO      -0.150750
     10 C24          1.9250     3.1980    -6.0480 ca         1 BMO      -0.106250
     11 C23          1.9200     2.2030    -5.1180 ca         1 BMO      -0.189550
     12 C28          0.8940     1.2140    -5.1050 ca         1 BMO       0.457350
     13 N29          1.0020     0.2180    -4.2260 nb         1 BMO      -0.708500
     14 C31          0.0660    -0.7310    -4.2370 ca         1 BMO       0.457350
     15 C30         -1.0710    -0.7130    -5.0990 ca         1 BMO      -0.225550
     16 C34         -2.0370    -1.7470    -4.9710 ca         1 BMO      -0.097000
     17 C35         -1.8790    -2.7560    -4.0700 ca         1 BMO      -0.150750
     18 C32         -0.7390    -2.7890    -3.2330 ca         1 BMO      -0.106250
     19 C33          0.2010    -1.8070    -3.3130 ca         1 BMO      -0.189550
     20 C1          -5.8180     0.6650    -2.9290 c3         1 BMO       0.158300
     21 C2          -7.2150     0.2640    -2.4790 c3         1 BMO      -0.106900
     22 C3          -7.7440    -0.9850    -3.1720 c3         1 BMO       0.222800
     23 N1          -7.0350    -2.1630    -2.7000 nu         1 BMO      -0.767600
     24 C4          -6.5790    -3.2240    -3.3900 ca         1 BMO       0.262100
     25 C5          -7.1750    -3.6930    -4.5930 ca         1 BMO      -0.225550
     26 C6          -8.4140    -3.2120    -5.1020 ca         1 BMO      -0.097000
     27 C7          -8.9360    -3.6820    -6.2710 ca         1 BMO      -0.150750
     28 C8          -8.2440    -4.6690    -7.0110 ca         1 BMO      -0.106250
     29 C9          -7.0860    -5.1970    -6.5300 ca         1 BMO      -0.189550
     30 C10         -6.5330    -4.7650    -5.2890 ca         1 BMO       0.457350
     31 N2          -5.4640    -5.4170    -4.8380 nb         1 BMO      -0.708500
     32 C11         -4.9660    -5.0510    -3.6560 ca         1 BMO       0.457350
     33 C12         -3.8650    -5.7980    -3.1470 ca         1 BMO      -0.189550
     34 C13         -3.2710    -5.4680    -1.9660 ca         1 BMO      -0.106250
     35 C14         -3.7300    -4.3540    -1.2280 ca         1 BMO      -0.150750
     36 C15         -4.7860    -3.6200    -1.6850 ca         1 BMO      -0.097000
     37 C16         -5.4570    -3.9540    -2.8910 ca         1 BMO      -0.225550
     38 H171        -6.4020     1.7750    -4.5110 hn         1 BMO       0.349800
     39 H191        -4.0100     2.1380    -4.3840 h1         1 BMO       0.037450
     40 H192        -3.8400     0.4070    -4.6050 h1         1 BMO       0.037450
     41 H361        -4.9840     0.5900    -6.8370 hc         1 BMO       0.052450
     42 H362        -5.1160     2.3240    -6.6190 hc         1 BMO       0.052450
     43 H221        -3.2140     1.9280    -8.0230 h1         1 BMO       0.059200
     44 H222        -2.6270     2.4980    -6.4700 h1         1 BMO       0.059200
     45 HN20        -2.8350    -0.3820    -6.9140 hn         1 BMO       0.422300
     46 H26         -0.8430     2.3930    -7.8210 ha         1 BMO       0.123250
     47 H25          0.9580     4.0190    -7.8050 ha         1 BMO       0.133750
     48 H24          2.7190     3.9330    -6.0500 ha         1 BMO       0.131750
     49 H23          2.7060     2.1240    -4.3780 ha         1 BMO       0.148250
     50 H34         -2.9260    -1.7540    -5.5880 ha         1 BMO       0.123250
     51 H35         -2.6290    -3.5290    -3.9840 ha         1 BMO       0.133750
     52 H32         -0.6220    -3.5970    -2.5220 ha         1 BMO       0.131750
     53 H33          1.0750    -1.8130    -2.6730 ha         1 BMO       0.148250
     54 H11         -5.1180    -0.1580    -2.7550 h1         1 BMO       0.037450
     55 H12A        -5.4640     1.4990    -2.3020 h1         1 BMO       0.037450
     56 H21         -7.2270     0.1240    -1.3940 hc         1 BMO       0.052450
     57 H22         -7.9130     1.0810    -2.6800 hc         1 BMO       0.052450
     58 H31         -8.8180    -1.0750    -2.9880 h1         1 BMO       0.059200
     59 H32A        -7.5940    -0.8780    -4.2460 h1         1 BMO       0.059200
     60 HN1         -6.6900    -2.0680    -1.7590 hn         1 BMO       0.422300
     61 H6          -8.9880    -2.4900    -4.5430 ha         1 BMO       0.123250
     62 H7          -9.8880    -3.3090    -6.6240 ha         1 BMO       0.133750
     63 H8          -8.6530    -5.0210    -7.9500 ha         1 BMO       0.131750
     64 H9          -6.5620    -5.9790    -7.0650 ha         1 BMO       0.148250
     65 H12         -3.5140    -6.6370    -3.7350 ha         1 BMO       0.148250
     66 H13         -2.4360    -6.0490    -1.5960 ha         1 BMO       0.131750
     67 H14         -3.2390    -4.0770    -0.3050 ha         1 BMO       0.133750
     68 H15         -5.0950    -2.7680    -1.0930 ha         1 BMO       0.123250
@<TRIPOS>BOND
     1     1     2 1   
     2     1    20 1   
     3     1    38 1   
     4     2     3 1   
     5     2    39 1   
     6     2    40 1   
     7     3     4 1   
     8     3    41 1   
     9     3    42 1   
    10     4     5 1   
    11     4    43 1   
    12     4    44 1   
    13     5     6 1   
    14     5    45 1   
    15     6     7 ar  
    16     6    15 ar  
    17     7     8 ar  
    18     7    12 ar  
    19     8     9 ar  
    20     8    46 1   
    21     9    10 ar  
    22     9    47 1   
    23    10    11 ar  
    24    10    48 1   
    25    11    12 ar  
    26    11    49 1   
    27    12    13 ar  
    28    13    14 ar  
    29    14    15 ar  
    30    14    19 ar  
    31    15    16 ar  
    32    16    17 ar  
    33    16    50 1   
    34    17    18 ar  
    35    17    51 1   
    36    18    19 ar  
    37    18    52 1   
    38    19    53 1   
    39    20    21 1   
    40    20    54 1   
    41    20    55 1   
    42    21    22 1   
    43    21    56 1   
    44    21    57 1   
    45    22    23 1   
    46    22    58 1   
    47    22    59 1   
    48    23    24 1   
    49    23    60 1   
    50    24    25 ar  
    51    24    37 ar  
    52    25    26 ar  
    53    25    30 ar  
    54    26    27 ar  
    55    26    61 1   
    56    27    28 ar  
    57    27    62 1   
    58    28    29 ar  
    59    28    63 1   
    60    29    30 ar  
    61    29    64 1   
    62    30    31 ar  
    63    31    32 ar  
    64    32    33 ar  
    65    32    37 ar  
    66    33    34 ar  
    67    33    65 1   
    68    34    35 ar  
    69    34    66 1   
    70    35    36 ar  
    71    35    67 1   
    72    36    37 ar  
    73    36    68 1   
@<TRIPOS>SUBSTRUCTURE
     1 BMO         1 TEMP              0 ****  ****    0 ROOT
