@<TRIPOS>MOLECULE
BMS
   59    63     1     0     0
SMALL
abcg2


@<TRIPOS>ATOM
      1 C5           0.9730     0.0950     3.9130 ca         1 BMS      -0.075000
      2 C6          -0.2580     0.5620     4.3750 ca         1 BMS      -0.167000
      3 C7          -0.5620     0.4700     5.7260 ca         1 BMS      -0.070500
      4 C2           0.3270    -0.0690     6.6500 ca         1 BMS      -0.142600
      5 C3           1.5580    -0.5140     6.1760 ca         1 BMS      -0.070500
      6 C4           1.8780    -0.4390     4.8330 ca         1 BMS      -0.167000
      7 C1          -0.0310    -0.1690     8.1250 c          1 BMS       0.714600
      8 O1           0.8440    -0.6350     8.8810 o          1 BMS      -0.721500
      9 O2          -1.1690     0.2200     8.4520 o          1 BMS      -0.721500
     10 N1           1.3830     0.1520     2.5760 ns         1 BMS      -0.130000
     11 C8           0.6090     0.2180     1.4630 c          1 BMS       0.607700
     12 C9           1.3590     0.2340     0.1730 ca         1 BMS      -0.140600
     13 C10          0.7090    -0.2180    -0.9650 ca         1 BMS      -0.058000
     14 C11          1.3320    -0.2510    -2.2110 ca         1 BMS      -0.087300
     15 C12          2.6610     0.1750    -2.3230 ca         1 BMS      -0.049300
     16 C13          3.2910     0.6740    -1.1800 ca         1 BMS      -0.123000
     17 C14          2.6640     0.7090     0.0500 ca         1 BMS      -0.086000
     18 O3          -0.6100     0.2490     1.4880 o          1 BMS      -0.586100
     19 C15          0.5450    -0.7880    -3.3930 c6         1 BMS       0.037900
     20 C16          1.2160    -0.4570    -4.7260 c6         1 BMS      -0.068400
     21 C17          2.7000    -0.7550    -4.6510 c6         1 BMS      -0.067400
     22 C18          3.4290     0.1340    -3.6370 c6         1 BMS      -0.000700
     23 C19          4.8310    -0.4490    -3.4280 c3         1 BMS      -0.081100
     24 C20          3.5620     1.5620    -4.1850 c3         1 BMS      -0.081100
     25 C21         -0.8820    -0.3110    -3.3860 ca         1 BMS      -0.129300
     26 C22         -1.1690     1.0780    -3.3400 ca         1 BMS       0.367900
     27 N2          -2.3660     1.5910    -3.3670 nb         1 BMS      -0.659000
     28 C23         -3.4270     0.7490    -3.4420 ca         1 BMS       0.269000
     29 C24         -3.2630    -0.6560    -3.4900 ca         1 BMS      -0.078000
     30 C25         -1.9450    -1.1660    -3.4600 ca         1 BMS      -0.061000
     31 C26         -4.7300     1.2920    -3.4690 ca         1 BMS      -0.079000
     32 C27         -5.8210     0.4670    -3.5390 ca         1 BMS      -0.106000
     33 C28         -5.6570    -0.9330    -3.5870 ca         1 BMS      -0.110000
     34 C29         -4.4040    -1.4840    -3.5630 ca         1 BMS      -0.090000
     35 H6          -0.9790     0.9980     3.7020 ha         1 BMS       0.100000
     36 H7          -1.5220     0.8350     6.0670 ha         1 BMS       0.128500
     37 H3           2.2780    -0.9320     6.8670 ha         1 BMS       0.128500
     38 H4           2.8400    -0.8020     4.4890 ha         1 BMS       0.100000
     39 H            2.3660    -0.0230     2.4340 hn         1 BMS       0.138000
     40 H10         -0.3140    -0.5640    -0.8780 ha         1 BMS       0.140000
     41 H13          4.3040     1.0480    -1.2480 ha         1 BMS       0.109000
     42 H14          3.1970     1.1260     0.8950 ha         1 BMS       0.120000
     43 H15          0.5280    -1.8810    -3.3000 hc         1 BMS       0.059700
     44 H161         1.0510     0.5920    -4.9870 hc         1 BMS       0.045200
     45 H162         0.7440    -1.0430    -5.5160 hc         1 BMS       0.045200
     46 H171         3.1640    -0.6260    -5.6330 hc         1 BMS       0.041700
     47 H172         2.8400    -1.8070    -4.3770 hc         1 BMS       0.041700
     48 H191         5.4650     0.1900    -2.8120 hc         1 BMS       0.034867
     49 H192         4.7840    -1.4330    -2.9580 hc         1 BMS       0.034867
     50 H193         5.3290    -0.5650    -4.3930 hc         1 BMS       0.034867
     51 H201         4.0760     2.2110    -3.4740 hc         1 BMS       0.034867
     52 H202         4.1420     1.5570    -5.1100 hc         1 BMS       0.034867
     53 H203         2.5920     2.0140    -4.3990 hc         1 BMS       0.034867
     54 H22         -0.3460     1.7840    -3.2680 h4         1 BMS       0.024100
     55 H25         -1.7910    -2.2390    -3.4940 ha         1 BMS       0.116000
     56 H26         -4.8430     2.3690    -3.4330 ha         1 BMS       0.130000
     57 H27         -6.8170     0.8890    -3.5610 ha         1 BMS       0.112000
     58 H28         -6.5290    -1.5710    -3.6460 ha         1 BMS       0.111000
     59 H29         -4.2750    -2.5590    -3.6000 ha         1 BMS       0.112000
@<TRIPOS>BOND
     1     1     2 ar  
     2     1     6 ar  
     3     1    10 1   
     4     2     3 ar  
     5     2    35 1   
     6     3     4 ar  
     7     3    36 1   
     8     4     5 ar  
     9     4     7 1   
    10     5     6 ar  
    11     5    37 1   
    12     6    38 1   
    13     7     8 1   
    14     7     9 1   
    15    10    11 1   
    16    10    39 1   
    17    11    12 1   
    18    11    18 2   
    19    12    13 ar  
    20    12    17 ar  
    21    13    14 ar  
    22    13    40 1   
    23    14    15 ar  
    24    14    19 1   
    25    15    16 ar  
    26    15    22 1   
    27    16    17 ar  
    28    16    41 1   
    29    17    42 1   
    30    19    20 1   
    31    19    25 1   
    32    19    43 1   
    33    20    21 1   
    34    20    44 1   
    35    20    45 1   
    36    21    22 1   
    37    21    46 1   
    38    21    47 1   
    39    22    23 1   
    40    22    24 1   
    41    23    48 1   
    42    23    49 1   
    43    23    50 1   
    44    24    51 1   
    45    24    52 1   
    46    24    53 1   
    47    25    26 ar  
    48    25    30 ar  
    49    26    27 ar  
    50    26    54 1   
    51    27    28 ar  
    52    28    29 ar  
    53    28    31 ar  
    54    29    30 ar  
    55    29    34 ar  
    56    30    55 1   
    57    31    32 ar  
    58    31    56 1   
    59    32    33 ar  
    60    32    57 1   
    61    33    34 ar  
    62    33    58 1   
    63    34    59 1   
@<TRIPOS>SUBSTRUCTURE
     1 BMS         1 TEMP              0 ****  ****    0 ROOT
