@<TRIPOS>MOLECULE
BMS
   59    63     1     0     0
SMALL
No Charge or Current Charge


@<TRIPOS>ATOM
      1 C5           0.9210     0.0250     4.0210 ca         1 BMS      -0.075000
      2 C6          -0.3530    -0.3100     4.5240 ca         1 BMS      -0.167000
      3 C7          -0.6130    -0.2590     5.9050 ca         1 BMS      -0.070500
      4 C2           0.3930     0.1280     6.8200 ca         1 BMS      -0.142600
      5 C3           1.6670     0.4640     6.3090 ca         1 BMS      -0.070500
      6 C4           1.9230     0.4120     4.9280 ca         1 BMS      -0.167000
      7 C1           0.1120     0.1820     8.3130 c          1 BMS       0.714600
      8 O1           1.0130     0.5240     9.0670 o          1 BMS      -0.721500
      9 O2          -1.0050    -0.1170     8.7100 o          1 BMS      -0.721500
     10 N1           1.2620    -0.0000     2.6390 ns         1 BMS      -0.130000
     11 C8           0.5510    -0.3500     1.4930 c          1 BMS       0.607700
     12 C9           1.3120    -0.2220     0.1830 ca         1 BMS      -0.140600
     13 C10          0.6690    -0.5570    -1.0290 ca         1 BMS      -0.058000
     14 C11          1.3210    -0.4500    -2.2760 ca         1 BMS      -0.087300
     15 C12          2.6920    -0.0320    -2.3080 ca         1 BMS      -0.049300
     16 C13          3.3230     0.3240    -1.0980 ca         1 BMS      -0.123000
     17 C14          2.6490     0.2310     0.1290 ca         1 BMS      -0.086000
     18 O3          -0.6120    -0.7410     1.5130 o          1 BMS      -0.586100
     19 C15          0.5000    -0.8240    -3.5540 c6         1 BMS       0.037900
     20 C16          1.2240    -0.4150    -4.8580 c6         1 BMS      -0.068400
     21 C17          2.7300    -0.7350    -4.7790 c6         1 BMS      -0.067400
     22 C18          3.4580     0.0640    -3.6530 c6         1 BMS      -0.000700
     23 C19          4.9060    -0.5100    -3.5270 c3         1 BMS      -0.081100
     24 C20          3.5940     1.5690    -4.0390 c3         1 BMS      -0.081100
     25 C21         -0.9150    -0.2330    -3.5250 ca         1 BMS      -0.129300
     26 C22         -1.1110     1.1490    -3.3390 ca         1 BMS       0.367900
     27 N2          -2.3340     1.7290    -3.2990 nb         1 BMS      -0.659000
     28 C23         -3.4270     0.9430    -3.4440 ca         1 BMS       0.269000
     29 C24         -3.3190    -0.4590    -3.6340 ca         1 BMS      -0.078000
     30 C25         -2.0460    -1.0540    -3.6760 ca         1 BMS      -0.061000
     31 C26         -4.7110     1.5180    -3.4060 ca         1 BMS      -0.079000
     32 C27         -5.8650     0.7270    -3.5530 ca         1 BMS      -0.106000
     33 C28         -5.7450    -0.6590    -3.7410 ca         1 BMS      -0.110000
     34 C29         -4.4740    -1.2530    -3.7820 ca         1 BMS      -0.090000
     35 H6          -1.1610    -0.6110     3.8660 ha         1 BMS       0.100000
     36 H7          -1.6060    -0.5240     6.2630 ha         1 BMS       0.128500
     37 H3           2.4670     0.7670     6.9830 ha         1 BMS       0.128500
     38 H4           2.9140     0.6760     4.5630 ha         1 BMS       0.100000
     39 H            2.2110     0.2960     2.4560 hn         1 BMS       0.138000
     40 H10         -0.3620    -0.9060    -1.0020 ha         1 BMS       0.140000
     41 H13          4.3480     0.6830    -1.0940 ha         1 BMS       0.109000
     42 H14          3.1880     0.5150     1.0290 ha         1 BMS       0.120000
     43 H15          0.4200    -1.9210    -3.5600 hc         1 BMS       0.059700
     44 H161         1.0790     0.6540    -5.0610 hc         1 BMS       0.045200
     45 H162         0.7740    -0.9470    -5.7080 hc         1 BMS       0.045200
     46 H171         3.1990    -0.5300    -5.7510 hc         1 BMS       0.041700
     47 H172         2.8510    -1.8130    -4.6060 hc         1 BMS       0.041700
     48 H191         5.5420     0.0900    -2.8660 hc         1 BMS       0.034867
     49 H192         4.8930    -1.5340    -3.1340 hc         1 BMS       0.034867
     50 H193         5.4070    -0.5400    -4.5030 hc         1 BMS       0.034867
     51 H201         4.1900     2.1190    -3.3020 hc         1 BMS       0.034867
     52 H202         4.0820     1.6920    -5.0140 hc         1 BMS       0.034867
     53 H203         2.6180     2.0640    -4.0920 hc         1 BMS       0.034867
     54 H22         -0.2600     1.8190    -3.2150 h4         1 BMS       0.024100
     55 H25         -1.9400    -2.1270    -3.8210 ha         1 BMS       0.116000
     56 H26         -4.8120     2.5910    -3.2600 ha         1 BMS       0.130000
     57 H27         -6.8490     1.1890    -3.5210 ha         1 BMS       0.112000
     58 H28         -6.6360    -1.2730    -3.8540 ha         1 BMS       0.111000
     59 H29         -4.3870    -2.3280    -3.9280 ha         1 BMS       0.112000
@<TRIPOS>BOND
     1     1     2 ar  
     2     1     6 ar  
     3     1    10 1   
     4     2     3 ar  
     5     2    35 1   
     6     3     4 ar  
     7     3    36 1   
     8     4     5 ar  
     9     4     7 1   
    10     5     6 ar  
    11     5    37 1   
    12     6    38 1   
    13     7     8 1   
    14     7     9 1   
    15    10    11 1   
    16    10    39 1   
    17    11    12 1   
    18    11    18 2   
    19    12    13 ar  
    20    12    17 ar  
    21    13    14 ar  
    22    13    40 1   
    23    14    15 ar  
    24    14    19 1   
    25    15    16 ar  
    26    15    22 1   
    27    16    17 ar  
    28    16    41 1   
    29    17    42 1   
    30    19    20 1   
    31    19    25 1   
    32    19    43 1   
    33    20    21 1   
    34    20    44 1   
    35    20    45 1   
    36    21    22 1   
    37    21    46 1   
    38    21    47 1   
    39    22    23 1   
    40    22    24 1   
    41    23    48 1   
    42    23    49 1   
    43    23    50 1   
    44    24    51 1   
    45    24    52 1   
    46    24    53 1   
    47    25    26 ar  
    48    25    30 ar  
    49    26    27 ar  
    50    26    54 1   
    51    27    28 ar  
    52    28    29 ar  
    53    28    31 ar  
    54    29    30 ar  
    55    29    34 ar  
    56    30    55 1   
    57    31    32 ar  
    58    31    56 1   
    59    32    33 ar  
    60    32    57 1   
    61    33    34 ar  
    62    33    58 1   
    63    34    59 1   
@<TRIPOS>SUBSTRUCTURE
     1 BMS         1 TEMP              0 ****  ****    0 ROOT
