@<TRIPOS>MOLECULE
BMT
   32    31     1     0     0
SMALL
abcg2


@<TRIPOS>ATOM
      1 N           47.0110    99.1520    34.0070 n7         1 BMT      -0.868400
      2 CN          48.3170    98.9370    33.4080 c3         1 BMT       0.169100
      3 CA          45.9930    99.7770    33.1770 c3         1 BMT       0.033500
      4 C           45.4530    98.9200    31.9930 c          1 BMT       0.709000
      5 O           44.6160    99.4750    31.2510 o          1 BMT      -0.735000
      6 OXT         45.8390    97.7360    31.9210 o          1 BMT      -0.735000
      7 CB          46.3540   101.1910    32.7180 c3         1 BMT       0.199300
      8 OG1         47.2840   101.1000    31.6520 oh         1 BMT      -0.649000
      9 CG2         46.8700   102.0970    33.8440 c3         1 BMT      -0.085700
     10 CD1         45.8040   102.2920    34.9200 c3         1 BMT      -0.077100
     11 CD2         47.3630   103.4510    33.3000 c3         1 BMT      -0.047200
     12 CE          46.3600   104.1840    32.4660 c2         1 BMT      -0.200200
     13 CZ          46.5530   104.5570    31.2030 c2         1 BMT      -0.244200
     14 CH          45.5610   105.2900    30.3600 c3         1 BMT      -0.048900
     15 H           46.6490    98.2480    34.2780 hn         1 BMT       0.406000
     16 HN1         48.8760    98.2470    34.0430 h1         1 BMT       0.015033
     17 HN2         48.2970    98.5150    32.3980 h1         1 BMT       0.015033
     18 HN3         48.8910    99.8640    33.3710 h1         1 BMT       0.015033
     19 HA          45.1220    99.9020    33.8350 h1         1 BMT       0.035700
     20 HB          45.4200   101.6340    32.3480 h1         1 BMT       0.043700
     21 HG1         47.2100   101.8990    31.1220 ho         1 BMT       0.418000
     22 HG2         47.7330   101.6190    34.3180 hc         1 BMT       0.066700
     23 HD11        46.1290   103.0210    35.6650 hc         1 BMT       0.024700
     24 HD12        44.8610   102.6490    34.5010 hc         1 BMT       0.024700
     25 HD13        45.5960   101.3610    35.4470 hc         1 BMT       0.024700
     26 HD22        47.6420   104.0710    34.1590 hc         1 BMT       0.034200
     27 HD23        48.2820   103.3110    32.7250 hc         1 BMT       0.034200
     28 HE          45.4080   104.4220    32.9370 ha         1 BMT       0.163000
     29 HZ          47.5080   104.3300    30.7320 ha         1 BMT       0.161000
     30 HH1         45.3110   104.7250    29.4600 hc         1 BMT       0.031700
     31 HH2         44.6360   105.4850    30.9030 hc         1 BMT       0.031700
     32 HH3         45.9620   106.2480    30.0220 hc         1 BMT       0.031700
@<TRIPOS>BOND
     1     1     2 1   
     2     1     3 1   
     3     1    15 1   
     4     2    16 1   
     5     2    17 1   
     6     2    18 1   
     7     3     4 1   
     8     3     7 1   
     9     3    19 1   
    10     4     5 1   
    11     4     6 1   
    12     7     8 1   
    13     7     9 1   
    14     7    20 1   
    15     8    21 1   
    16     9    10 1   
    17     9    11 1   
    18     9    22 1   
    19    10    23 1   
    20    10    24 1   
    21    10    25 1   
    22    11    12 1   
    23    11    26 1   
    24    11    27 1   
    25    12    13 2   
    26    12    28 1   
    27    13    14 1   
    28    13    29 1   
    29    14    30 1   
    30    14    31 1   
    31    14    32 1   
@<TRIPOS>SUBSTRUCTURE
     1 BMT         1 TEMP              0 ****  ****    0 ROOT
