@<TRIPOS>MOLECULE
BMT
   32    31     1     0     0
SMALL
No Charge or Current Charge


@<TRIPOS>ATOM
      1 N           47.0310    99.0090    34.0260 n7         1 BMT      -0.868400
      2 CN          48.3730    98.8140    33.4360 c3         1 BMT       0.169100
      3 CA          45.9840    99.7290    33.1760 c3         1 BMT       0.033500
      4 C           45.3720    98.8960    31.9740 c          1 BMT       0.709000
      5 O           44.4740    99.4020    31.3120 o          1 BMT      -0.735000
      6 OXT         45.7270    97.7330    31.8090 o          1 BMT      -0.735000
      7 CB          46.3860   101.1780    32.7030 c3         1 BMT       0.199300
      8 OG1         47.3750   101.1260    31.6590 oh         1 BMT      -0.649000
      9 CG2         46.8650   102.1430    33.8410 c3         1 BMT      -0.085700
     10 CD1         45.7900   102.3310    34.9440 c3         1 BMT      -0.077100
     11 CD2         47.3580   103.5230    33.3110 c3         1 BMT      -0.047200
     12 CE          46.3430   104.2480    32.4490 c2         1 BMT      -0.200200
     13 CZ          46.5260   104.5990    31.1660 c2         1 BMT      -0.244200
     14 CH          45.5120   105.3240    30.3090 c3         1 BMT      -0.048900
     15 H           46.6550    98.0710    34.2160 hn         1 BMT       0.406000
     16 HN1         48.9890    98.1920    34.0980 h1         1 BMT       0.015033
     17 HN2         48.3110    98.3130    32.4610 h1         1 BMT       0.015033
     18 HN3         48.8940    99.7710    33.3040 h1         1 BMT       0.015033
     19 HA          45.1140    99.8710    33.8290 h1         1 BMT       0.035700
     20 HB          45.4740   101.6280    32.2840 h1         1 BMT       0.043700
     21 HG1         47.5270   102.0560    31.3930 ho         1 BMT       0.418000
     22 HG2         47.7300   101.6770    34.3270 hc         1 BMT       0.066700
     23 HD11        46.1270   103.0530    35.6980 hc         1 BMT       0.024700
     24 HD12        44.8470   102.6940    34.5190 hc         1 BMT       0.024700
     25 HD13        45.5890   101.3880    35.4650 hc         1 BMT       0.024700
     26 HD22        47.6290   104.1570    34.1650 hc         1 BMT       0.034200
     27 HD23        48.2930   103.3810    32.7550 hc         1 BMT       0.034200
     28 HE          45.4070   104.4900    32.9570 ha         1 BMT       0.163000
     29 HZ          47.4630   104.3730    30.6540 ha         1 BMT       0.161000
     30 HH1         45.2420   104.7250    29.4300 hc         1 BMT       0.031700
     31 HH2         44.5890   105.5360    30.8630 hc         1 BMT       0.031700
     32 HH3         45.9130   106.2800    29.9510 hc         1 BMT       0.031700
@<TRIPOS>BOND
     1     1     2 1   
     2     1     3 1   
     3     1    15 1   
     4     2    16 1   
     5     2    17 1   
     6     2    18 1   
     7     3     4 1   
     8     3     7 1   
     9     3    19 1   
    10     4     5 1   
    11     4     6 1   
    12     7     8 1   
    13     7     9 1   
    14     7    20 1   
    15     8    21 1   
    16     9    10 1   
    17     9    11 1   
    18     9    22 1   
    19    10    23 1   
    20    10    24 1   
    21    10    25 1   
    22    11    12 1   
    23    11    26 1   
    24    11    27 1   
    25    12    13 2   
    26    12    28 1   
    27    13    14 1   
    28    13    29 1   
    29    14    30 1   
    30    14    31 1   
    31    14    32 1   
@<TRIPOS>SUBSTRUCTURE
     1 BMT         1 TEMP              0 ****  ****    0 ROOT
