@<TRIPOS>MOLECULE
BMU
   40    41     1     0     0
SMALL
abcg2


@<TRIPOS>ATOM
      1 C1           0.4910    -0.0560    -0.3730 c          1 BMU       0.674100
      2 O1          -0.7110     0.1200    -0.4050 o          1 BMU      -0.586100
      3 N2           1.2840    -0.1780    -1.4800 ns         1 BMU      -0.161000
      4 C3           0.8920    -0.0970    -2.8160 ca         1 BMU      -0.005000
      5 C4           1.8980     0.1390    -3.7560 ca         1 BMU      -0.142000
      6 C5           1.6140     0.2050    -5.1080 ca         1 BMU      -0.074000
      7 C6           0.3070     0.0410    -5.5360 ca         1 BMU       0.093000
      8 CL6         -0.0620     0.1300    -7.2290 cl         1 BMU      -0.201000
      9 C7          -0.7040    -0.1960    -4.6210 ca         1 BMU      -0.074000
     10 C8          -0.4180    -0.2700    -3.2660 ca         1 BMU      -0.142000
     11 N9           1.1980    -0.1580     0.7980 ns         1 BMU      -0.417100
     12 C10          0.6270    -0.0620     2.0530 cc         1 BMU       0.011600
     13 C14         -0.6770    -0.0870     2.5030 cd         1 BMU      -0.227000
     14 C13         -0.5610     0.0400     3.9040 cd         1 BMU       0.280300
     15 N12          0.7000     0.1310     4.2700 nc         1 BMU      -0.520800
     16 N11          1.4170     0.0770     3.1370 na         1 BMU       0.087800
     17 C15          2.8570     0.1360     3.1760 c3         1 BMU       0.068900
     18 C17         -1.1600     0.2180     6.3270 c3         1 BMU      -0.079767
     19 C18         -2.5970     1.2720     4.5830 c3         1 BMU      -0.079767
     20 C19         -2.5060    -1.2160     4.7850 c3         1 BMU      -0.079767
     21 C16         -1.6900     0.0770     4.9010 c3         1 BMU      -0.072300
     22 H2           2.2820    -0.2200    -1.3370 hn         1 BMU       0.147000
     23 H4           2.9220     0.2760    -3.4290 ha         1 BMU       0.132000
     24 H5           2.4100     0.3880    -5.8170 ha         1 BMU       0.131500
     25 H7          -1.7240    -0.3320    -4.9540 ha         1 BMU       0.131500
     26 H8          -1.2240    -0.4670    -2.5780 ha         1 BMU       0.132000
     27 H9           2.1930    -0.3200     0.7530 hn         1 BMU       0.318500
     28 H14         -1.5710    -0.1840     1.9170 ha         1 BMU       0.168000
     29 H151         3.3070    -0.8210     2.9090 h1         1 BMU       0.053033
     30 H152         3.2360     0.9080     2.5070 h1         1 BMU       0.053033
     31 H153         3.1530     0.3870     4.1900 h1         1 BMU       0.053033
     32 H171        -1.9960     0.2300     7.0290 hc         1 BMU       0.036478
     33 H172        -0.5040    -0.6090     6.6020 hc         1 BMU       0.036478
     34 H173        -0.6000     1.1450     6.4580 hc         1 BMU       0.036478
     35 H181        -2.0470     2.2130     4.6430 hc         1 BMU       0.036478
     36 H182        -3.0220     1.1980     3.5810 hc         1 BMU       0.036478
     37 H183        -3.4260     1.3210     5.2920 hc         1 BMU       0.036478
     38 H191        -1.8900    -2.0940     4.9900 hc         1 BMU       0.036478
     39 H192        -3.3340    -1.2110     5.4980 hc         1 BMU       0.036478
     40 H193        -2.9300    -1.3340     3.7870 hc         1 BMU       0.036478
@<TRIPOS>BOND
     1     1     2 2   
     2     1     3 1   
     3     1    11 1   
     4     3     4 1   
     5     3    22 1   
     6     4     5 ar  
     7     4    10 ar  
     8     5     6 ar  
     9     5    23 1   
    10     6     7 ar  
    11     6    24 1   
    12     7     8 1   
    13     7     9 ar  
    14     9    10 ar  
    15     9    25 1   
    16    10    26 1   
    17    11    12 1   
    18    11    27 1   
    19    12    13 2   
    20    12    16 1   
    21    13    14 1   
    22    13    28 1   
    23    14    15 2   
    24    14    21 1   
    25    15    16 1   
    26    16    17 1   
    27    17    29 1   
    28    17    30 1   
    29    17    31 1   
    30    18    21 1   
    31    18    32 1   
    32    18    33 1   
    33    18    34 1   
    34    19    21 1   
    35    19    35 1   
    36    19    36 1   
    37    19    37 1   
    38    20    21 1   
    39    20    38 1   
    40    20    39 1   
    41    20    40 1   
@<TRIPOS>SUBSTRUCTURE
     1 BMU         1 TEMP              0 ****  ****    0 ROOT
