@<TRIPOS>MOLECULE
BMU
   40    41     1     0     0
SMALL
No Charge or Current Charge


@<TRIPOS>ATOM
      1 C1           0.3550    -0.0020    -0.3860 c          1 BMU       0.674100
      2 O1          -0.8670    -0.0480    -0.3910 o          1 BMU      -0.586100
      3 N2           1.1490     0.0020    -1.5250 ns         1 BMU      -0.161000
      4 C3           0.8340    -0.0410    -2.9120 ca         1 BMU      -0.005000
      5 C4           1.9090    -0.0230    -3.8220 ca         1 BMU      -0.142000
      6 C5           1.6780    -0.0620    -5.2090 ca         1 BMU      -0.074000
      7 C6           0.3650    -0.1210    -5.6990 ca         1 BMU       0.093000
      8 Cl6          0.0730    -0.1710    -7.4320 cl         1 BMU      -0.201000
      9 C7          -0.7160    -0.1400    -4.8040 ca         1 BMU      -0.074000
     10 C8          -0.4860    -0.1000    -3.4160 ca         1 BMU      -0.142000
     11 N9           1.1120     0.0530     0.7700 ns         1 BMU      -0.417100
     12 C10          0.6890     0.0670     2.0980 cc         1 BMU       0.011600
     13 C14         -0.5810     0.0300     2.5900 cd         1 BMU      -0.227000
     14 C13         -0.4950     0.0660     4.0000 cd         1 BMU       0.280300
     15 N12          0.7620     0.1230     4.4150 nc         1 BMU      -0.520800
     16 N11          1.4860     0.1230     3.2390 na         1 BMU       0.087800
     17 C15          2.9560     0.1800     3.2780 c3         1 BMU       0.068900
     18 C17         -1.2300     0.0950     6.4570 c3         1 BMU      -0.079767
     19 C18         -2.5880     1.2690     4.6840 c3         1 BMU      -0.079767
     20 C19         -2.4920    -1.2600     4.7430 c3         1 BMU      -0.079767
     21 C16         -1.6800     0.0430     4.9670 c3         1 BMU      -0.072300
     22 H2           2.1420     0.0430    -1.3400 hn         1 BMU       0.147000
     23 H4           2.9330     0.0230    -3.4560 ha         1 BMU       0.132000
     24 H5           2.5150    -0.0480    -5.9030 ha         1 BMU       0.131500
     25 H7          -1.7330    -0.1860    -5.1850 ha         1 BMU       0.131500
     26 H8          -1.3460    -0.1170    -2.7550 ha         1 BMU       0.132000
     27 H9           2.1100     0.0870     0.6040 hn         1 BMU       0.318500
     28 H14         -1.5010    -0.0170     2.0210 ha         1 BMU       0.168000
     29 H151         3.3690    -0.7130     2.7920 h1         1 BMU       0.053033
     30 H152         3.3010     1.0760     2.7490 h1         1 BMU       0.053033
     31 H153         3.3050     0.2180     4.3170 h1         1 BMU       0.053033
     32 H171        -2.0970     0.0770     7.1290 hc         1 BMU       0.036478
     33 H172        -0.5960    -0.7650     6.7080 hc         1 BMU       0.036478
     34 H173        -0.6640     1.0110     6.6670 hc         1 BMU       0.036478
     35 H181        -2.0290     2.2040     4.8160 hc         1 BMU       0.036478
     36 H182        -2.9730     1.2480     3.6580 hc         1 BMU       0.036478
     37 H183        -3.4480     1.2880     5.3650 hc         1 BMU       0.036478
     38 H191        -1.8640    -2.1430     4.9170 hc         1 BMU       0.036478
     39 H192        -3.3490    -1.3130     5.4250 hc         1 BMU       0.036478
     40 H193        -2.8760    -1.3160     3.7170 hc         1 BMU       0.036478
@<TRIPOS>BOND
     1     1     2 2   
     2     1     3 1   
     3     1    11 1   
     4     3     4 1   
     5     3    22 1   
     6     4     5 ar  
     7     4    10 ar  
     8     5     6 ar  
     9     5    23 1   
    10     6     7 ar  
    11     6    24 1   
    12     7     8 1   
    13     7     9 ar  
    14     9    10 ar  
    15     9    25 1   
    16    10    26 1   
    17    11    12 1   
    18    11    27 1   
    19    12    13 2   
    20    12    16 1   
    21    13    14 1   
    22    13    28 1   
    23    14    15 2   
    24    14    21 1   
    25    15    16 1   
    26    16    17 1   
    27    17    29 1   
    28    17    30 1   
    29    17    31 1   
    30    18    21 1   
    31    18    32 1   
    32    18    33 1   
    33    18    34 1   
    34    19    21 1   
    35    19    35 1   
    36    19    36 1   
    37    19    37 1   
    38    20    21 1   
    39    20    38 1   
    40    20    39 1   
    41    20    40 1   
@<TRIPOS>SUBSTRUCTURE
     1 BMU         1 TEMP              0 ****  ****    0 ROOT
