@<TRIPOS>MOLECULE
BMV
   57    61     1     0     0
SMALL
abcg2


@<TRIPOS>ATOM
      1 CAJ         -0.5050     0.7160    -4.5350 ca         1 BMV      -0.097500
      2 CAF          0.2910     0.2770    -5.5830 ca         1 BMV      -0.103000
      3 CAE          1.6360     0.6230    -5.6270 ca         1 BMV      -0.103000
      4 CAG          2.1730     1.4120    -4.6190 ca         1 BMV      -0.103000
      5 CAK          1.3710     1.8490    -3.5730 ca         1 BMV      -0.097500
      6 CAZ          0.0230     1.5060    -3.5170 ca         1 BMV      -0.082300
      7 CAR         -0.8310     1.9230    -2.3580 c3         1 BMV      -0.030100
      8 CBE         -0.7940     0.9040    -1.2130 c3         1 BMV       0.226500
      9 CAU         -1.7150     1.3290    -0.0730 c3         1 BMV       0.209800
     10 NBF         -1.6030     0.4570     1.0770 nh         1 BMV      -0.815400
     11 CAS         -2.7360    -0.4000     1.4120 c3         1 BMV       0.209500
     12 CBA         -3.4790    -0.8970     0.2210 cc         1 BMV       0.208300
     13 CAP         -4.7870    -0.6550    -0.0980 cd         1 BMV      -0.215000
     14 NAV         -5.0140    -1.3460    -1.2510 na         1 BMV      -0.296500
     15 CAO         -3.8670    -1.9640    -1.5870 cd         1 BMV       0.401400
     16 NAW         -2.9190    -1.7180    -0.7200 nc         1 BMV      -0.670000
     17 CBD         -0.6570     0.7220     2.0300 ca         1 BMV       0.378000
     18 CAN         -0.8650     0.3410     3.3700 ca         1 BMV      -0.204000
     19 CAM          0.0590     0.6050     4.3550 ca         1 BMV      -0.022000
     20 CAY          1.2400     1.2740     4.0430 ca         1 BMV      -0.082000
     21 CAD          2.2050     1.5520     5.0470 cg         1 BMV       0.336000
     22 NAA          2.9900     1.7780     5.8620 n1         1 BMV      -0.467000
     23 CAQ          1.4730     1.6400     2.7170 ca         1 BMV      -0.018000
     24 CBB          0.5660     1.3710     1.7140 ca         1 BMV      -0.199300
     25 CAT          0.9930     1.7110     0.3000 c3         1 BMV       0.265100
     26 NBG          0.5660     0.7540    -0.7010 n3         1 BMV      -0.759500
     27 SBH          1.4030    -0.6460    -0.8740 sy         1 BMV       1.236600
     28 OAB          0.8700    -1.3250    -2.0390 o          1 BMV      -0.541000
     29 OAC          2.8160    -0.3140    -0.7840 o          1 BMV      -0.541000
     30 CBC          1.0830    -1.6660     0.5110 cc         1 BMV      -0.471500
     31 CAL         -0.0060    -2.4660     0.6990 cd         1 BMV       0.012000
     32 CAH          0.0370    -3.1150     1.9560 cd         1 BMV      -0.170000
     33 CAI          1.1500    -2.7860     2.6770 cc         1 BMV      -0.226000
     34 SAX          2.1590    -1.6920     1.8450 ss         1 BMV       0.344000
     35 HAJ         -1.5530     0.4400    -4.5060 ha         1 BMV       0.106500
     36 HAF         -0.1390    -0.3330    -6.3680 ha         1 BMV       0.111500
     37 HAE          2.2600     0.2820    -6.4440 ha         1 BMV       0.111000
     38 HAG          3.2190     1.6910    -4.6480 ha         1 BMV       0.111500
     39 HAK          1.8010     2.4670    -2.7940 ha         1 BMV       0.106500
     40 HAR1        -1.8710     2.0350    -2.6770 hc         1 BMV       0.046200
     41 HAR2        -0.5160     2.9020    -1.9820 hc         1 BMV       0.046200
     42 HBE         -1.1380    -0.0630    -1.5820 h1         1 BMV       0.100700
     43 HAU1        -2.7420     1.3140    -0.4360 h1         1 BMV       0.052200
     44 HAU2        -1.5270     2.3660     0.2220 h1         1 BMV       0.052200
     45 HAS1        -2.3550    -1.2590     1.9690 h1         1 BMV       0.052700
     46 HAS2        -3.4440     0.1170     2.0710 h1         1 BMV       0.052700
     47 HAP         -5.5470    -0.0660     0.3870 h4         1 BMV       0.162000
     48 HAV         -5.8860    -1.3950    -1.7540 hn         1 BMV       0.359000
     49 HAO         -3.7770    -2.5810    -2.4680 h5         1 BMV       0.066100
     50 HAN         -1.7800    -0.1490     3.6650 ha         1 BMV       0.117000
     51 HAM         -0.1460     0.3020     5.3730 ha         1 BMV       0.121000
     52 HAQ          2.4100     2.1180     2.4580 ha         1 BMV       0.125000
     53 HAT1         2.0770     1.8080     0.2680 h1         1 BMV       0.069700
     54 HAT2         0.6160     2.6890    -0.0100 h1         1 BMV       0.069700
     55 HAL         -0.8200    -2.5530    -0.0100 ha         1 BMV       0.171000
     56 HAH         -0.7220    -3.7970     2.3100 ha         1 BMV       0.131000
     57 HAI          1.4300    -3.1360     3.6590 h4         1 BMV       0.147000
@<TRIPOS>BOND
     1     1     2 ar  
     2     1     6 ar  
     3     1    35 1   
     4     2     3 ar  
     5     2    36 1   
     6     3     4 ar  
     7     3    37 1   
     8     4     5 ar  
     9     4    38 1   
    10     5     6 ar  
    11     5    39 1   
    12     6     7 1   
    13     7     8 1   
    14     7    40 1   
    15     7    41 1   
    16     8     9 1   
    17     8    26 1   
    18     8    42 1   
    19     9    10 1   
    20     9    43 1   
    21     9    44 1   
    22    10    11 1   
    23    10    17 1   
    24    11    12 1   
    25    11    45 1   
    26    11    46 1   
    27    12    13 2   
    28    12    16 1   
    29    13    14 1   
    30    13    47 1   
    31    14    15 1   
    32    14    48 1   
    33    15    16 2   
    34    15    49 1   
    35    17    18 ar  
    36    17    24 ar  
    37    18    19 ar  
    38    18    50 1   
    39    19    20 ar  
    40    19    51 1   
    41    20    21 1   
    42    20    23 ar  
    43    21    22 3   
    44    23    24 ar  
    45    23    52 1   
    46    24    25 1   
    47    25    26 1   
    48    25    53 1   
    49    25    54 1   
    50    26    27 1   
    51    27    28 2   
    52    27    29 2   
    53    27    30 1   
    54    30    31 2   
    55    30    34 1   
    56    31    32 1   
    57    31    55 1   
    58    32    33 2   
    59    32    56 1   
    60    33    34 1   
    61    33    57 1   
@<TRIPOS>SUBSTRUCTURE
     1 BMV         1 TEMP              0 ****  ****    0 ROOT
