@<TRIPOS>MOLECULE
BMV
   57    61     1     0     0
SMALL
No Charge or Current Charge


@<TRIPOS>ATOM
      1 CAJ         -0.7850     0.7890    -4.4220 ca         1 BMV      -0.097500
      2 CAF         -0.1590     0.2680    -5.5670 ca         1 BMV      -0.103000
      3 CAE          1.1790     0.5950    -5.8480 ca         1 BMV      -0.103000
      4 CAG          1.8890     1.4430    -4.9820 ca         1 BMV      -0.103000
      5 CAK          1.2620     1.9650    -3.8360 ca         1 BMV      -0.097500
      6 CAZ         -0.0780     1.6410    -3.5500 ca         1 BMV      -0.082300
      7 CAR         -0.7600     2.1990    -2.3050 c3         1 BMV      -0.030100
      8 CBE         -0.8820     1.1550    -1.1680 c3         1 BMV       0.226500
      9 CAU         -1.8250     1.6810    -0.0420 c3         1 BMV       0.209800
     10 NBF         -1.9280     0.7980     1.1450 nh         1 BMV      -0.815400
     11 CAS         -3.1090    -0.1220     1.2170 c3         1 BMV       0.209500
     12 CBA         -3.4960    -0.8750    -0.0510 cc         1 BMV       0.208300
     13 CAP         -4.1860    -0.3940    -1.1330 cd         1 BMV      -0.215000
     14 NAV         -4.2730    -1.4640    -2.0110 na         1 BMV      -0.296500
     15 CAO         -3.6500    -2.5450    -1.4170 cd         1 BMV       0.401400
     16 NAW         -3.1900    -2.2010    -0.2220 nc         1 BMV      -0.670000
     17 CBD         -0.9120     0.7940     2.1410 ca         1 BMV       0.378000
     18 CAN         -1.2750     0.4770     3.4690 ca         1 BMV      -0.204000
     19 CAM         -0.3260     0.4250     4.4990 ca         1 BMV      -0.022000
     20 CAY          1.0180     0.7080     4.2240 ca         1 BMV      -0.082000
     21 CAD          1.9990     0.6480     5.2700 cg         1 BMV       0.336000
     22 NAA          2.8000     0.6080     6.1180 n1         1 BMV      -0.467000
     23 CAQ          1.3970     1.0590     2.9190 ca         1 BMV      -0.018000
     24 CBB          0.4530     1.1050     1.8680 ca         1 BMV      -0.199300
     25 CAT          0.9940     1.4970     0.4880 c3         1 BMV       0.265100
     26 NBG          0.4560     0.7460    -0.6540 n3         1 BMV      -0.759500
     27 SBH          1.0480    -0.8290    -0.9280 sy         1 BMV       1.236600
     28 OAB         -0.0440    -1.5900    -1.5450 o          1 BMV      -0.541000
     29 OAC          2.3330    -0.6690    -1.6160 o          1 BMV      -0.541000
     30 CBC          1.3300    -1.6190     0.6310 cc         1 BMV      -0.471500
     31 CAL          0.3790    -2.1640     1.4550 cd         1 BMV       0.012000
     32 CAH          0.9260    -2.6820     2.6580 cd         1 BMV      -0.170000
     33 CAI          2.2900    -2.5360     2.7450 cc         1 BMV      -0.226000
     34 SAX          2.9370    -1.7470     1.3080 ss         1 BMV       0.344000
     35 HAJ         -1.8200     0.5290    -4.2110 ha         1 BMV       0.106500
     36 HAF         -0.7090    -0.3900    -6.2360 ha         1 BMV       0.111500
     37 HAE          1.6640     0.1910    -6.7330 ha         1 BMV       0.111000
     38 HAG          2.9250     1.6940    -5.1960 ha         1 BMV       0.111500
     39 HAK          1.8220     2.6140    -3.1670 ha         1 BMV       0.106500
     40 HAR1        -1.7640     2.5490    -2.5750 hc         1 BMV       0.046200
     41 HAR2        -0.2230     3.0790    -1.9330 hc         1 BMV       0.046200
     42 HBE         -1.4120     0.2990    -1.6010 h1         1 BMV       0.100700
     43 HAU1        -2.8200     1.8560    -0.4700 h1         1 BMV       0.052200
     44 HAU2        -1.4740     2.6690     0.2820 h1         1 BMV       0.052200
     45 HAS1        -2.9330    -0.8890     1.9830 h1         1 BMV       0.052700
     46 HAS2        -3.9850     0.4500     1.5500 h1         1 BMV       0.052700
     47 HAP         -4.5990     0.5890    -1.3320 h4         1 BMV       0.162000
     48 HAV         -4.7170    -1.4770    -2.9220 hn         1 BMV       0.359000
     49 HAO         -3.5840    -3.5170    -1.8930 h5         1 BMV       0.066100
     50 HAN         -2.3110     0.2760     3.7210 ha         1 BMV       0.117000
     51 HAM         -0.6380     0.1670     5.5090 ha         1 BMV       0.121000
     52 HAQ          2.4420     1.2910     2.7180 ha         1 BMV       0.125000
     53 HAT1         2.0880     1.3910     0.4920 h1         1 BMV       0.069700
     54 HAT2         0.8100     2.5710     0.3460 h1         1 BMV       0.069700
     55 HAL         -0.6840    -2.1800     1.2200 ha         1 BMV       0.171000
     56 HAH          0.3240    -3.1410     3.4350 ha         1 BMV       0.131000
     57 HAI          2.9630    -2.8300     3.5400 h4         1 BMV       0.147000
@<TRIPOS>BOND
     1     1     2 ar  
     2     1     6 ar  
     3     1    35 1   
     4     2     3 ar  
     5     2    36 1   
     6     3     4 ar  
     7     3    37 1   
     8     4     5 ar  
     9     4    38 1   
    10     5     6 ar  
    11     5    39 1   
    12     6     7 1   
    13     7     8 1   
    14     7    40 1   
    15     7    41 1   
    16     8     9 1   
    17     8    26 1   
    18     8    42 1   
    19     9    10 1   
    20     9    43 1   
    21     9    44 1   
    22    10    11 1   
    23    10    17 1   
    24    11    12 1   
    25    11    45 1   
    26    11    46 1   
    27    12    13 2   
    28    12    16 1   
    29    13    14 1   
    30    13    47 1   
    31    14    15 1   
    32    14    48 1   
    33    15    16 2   
    34    15    49 1   
    35    17    18 ar  
    36    17    24 ar  
    37    18    19 ar  
    38    18    50 1   
    39    19    20 ar  
    40    19    51 1   
    41    20    21 1   
    42    20    23 ar  
    43    21    22 3   
    44    23    24 ar  
    45    23    52 1   
    46    24    25 1   
    47    25    26 1   
    48    25    53 1   
    49    25    54 1   
    50    26    27 1   
    51    27    28 2   
    52    27    29 2   
    53    27    30 1   
    54    30    31 2   
    55    30    34 1   
    56    31    32 1   
    57    31    55 1   
    58    32    33 2   
    59    32    56 1   
    60    33    34 1   
    61    33    57 1   
@<TRIPOS>SUBSTRUCTURE
     1 BMV         1 TEMP              0 ****  ****    0 ROOT
