@<TRIPOS>MOLECULE
BMW
   53    58     1     0     0
SMALL
No Charge or Current Charge


@<TRIPOS>ATOM
      1 C1          -3.2380     0.6200    -0.7620 ca         1 BMW      -0.069000
      2 C2          -4.6270     0.4360    -0.7170 ca         1 BMW       0.087400
      3 N3          -5.3880    -0.4650    -1.4400 nc         1 BMW      -0.577100
      4 C5          -6.6420    -0.2070    -1.0090 cd         1 BMW       0.418700
      5 N6          -6.7050     0.8150    -0.0510 na         1 BMW      -0.316600
      6 C7          -5.4020     1.1970     0.1040 ca         1 BMW      -0.104200
      7 C8          -4.8710     2.1910     0.9320 ca         1 BMW      -0.091000
      8 C9          -3.4760     2.3920     0.9010 ca         1 BMW      -0.136000
      9 C10         -2.6440     1.6050     0.0640 ca         1 BMW       0.290000
     10 N11         -1.2440     1.8350     0.0460 nh         1 BMW      -0.797100
     11 C12         -0.6360     3.2090     0.1520 c5         1 BMW       0.219800
     12 C13          0.9100     2.9630    -0.1470 c5         1 BMW      -0.010100
     13 C14          0.9410     1.4490    -0.2260 ca         1 BMW      -0.293300
     14 C15         -0.2760     0.8570    -0.1140 ca         1 BMW       0.406900
     15 N16         -0.4460    -0.4660    -0.0320 nb         1 BMW      -0.288000
     16 C17          0.6970    -1.1880    -0.0950 ca         1 BMW       0.423900
     17 N18          0.5730    -2.6030    -0.0250 nh         1 BMW      -0.766300
     18 C19          1.7440    -3.5040    -0.3360 c6         1 BMW       0.184800
     19 C20          1.5830    -4.9410     0.2410 c6         1 BMW       0.141100
     20 O21          0.3010    -5.5030    -0.1160 os         1 BMW      -0.447000
     21 C22         -0.7990    -4.7230     0.4010 c6         1 BMW       0.141100
     22 C23         -0.7730    -3.2730    -0.1660 c6         1 BMW       0.184800
     23 N24          1.9530    -0.6800    -0.1990 nb         1 BMW      -0.289000
     24 C25          2.1090     0.6610    -0.2640 cp         1 BMW       0.255500
     25 C26          3.5100     1.1940    -0.3050 cp         1 BMW      -0.109500
     26 C27          4.5150     0.6530     0.5390 ca         1 BMW      -0.164000
     27 C28          3.8860     2.2280    -1.2000 ca         1 BMW      -0.129000
     28 C29          5.2030     2.7160    -1.2360 ca         1 BMW      -0.085000
     29 C30          6.1750     2.1740    -0.3800 ca         1 BMW      -0.133000
     30 C31          5.8320     1.1420     0.5050 ca         1 BMW       0.129100
     31 O32          6.7830     0.6160     1.3290 oh         1 BMW      -0.535100
     32 H1          -2.6380     0.0220    -1.4380 ha         1 BMW       0.157000
     33 H5          -7.5400    -0.7140    -1.3440 h5         1 BMW       0.060800
     34 HN6         -7.5350     1.1720     0.4050 hn         1 BMW       0.357000
     35 H8          -5.5100     2.7900     1.5780 ha         1 BMW       0.117000
     36 H9          -3.0400     3.1530     1.5410 ha         1 BMW       0.113000
     37 H12         -1.0700     3.9060    -0.5780 h1         1 BMW       0.051700
     38 H12A        -0.7690     3.6300     1.1590 h1         1 BMW       0.051700
     39 H13          1.1990     3.4410    -1.0880 hc         1 BMW       0.059700
     40 H13A         1.5490     3.3640     0.6480 hc         1 BMW       0.059700
     41 H19          1.8780    -3.5760    -1.4250 h1         1 BMW       0.064950
     42 H19A         2.6770    -3.0950     0.0780 h1         1 BMW       0.064950
     43 H20          2.3810    -5.5890    -0.1470 h1         1 BMW       0.052950
     44 H20A         1.6720    -4.9140     1.3370 h1         1 BMW       0.052950
     45 H22         -1.7460    -5.2110     0.1300 h1         1 BMW       0.052950
     46 H22A        -0.7360    -4.6940     1.4990 h1         1 BMW       0.052950
     47 H23         -1.5540    -2.7070     0.3620 h1         1 BMW       0.064950
     48 H23A        -1.0620    -3.3060    -1.2270 h1         1 BMW       0.064950
     49 H27          4.2560    -0.1460     1.2300 ha         1 BMW       0.132000
     50 H28          3.1560     2.6410    -1.8910 ha         1 BMW       0.117000
     51 H29          5.4720     3.5090    -1.9310 ha         1 BMW       0.115000
     52 H30          7.1950     2.5510    -0.4070 ha         1 BMW       0.128000
     53 HO32         6.3700    -0.0890     1.8720 ho         1 BMW       0.466000
@<TRIPOS>BOND
     1     1     2 ar  
     2     1     9 ar  
     3     1    32 1   
     4     2     3 1   
     5     2     6 ar  
     6     3     4 2   
     7     4     5 1   
     8     4    33 1   
     9     5     6 1   
    10     5    34 1   
    11     6     7 ar  
    12     7     8 ar  
    13     7    35 1   
    14     8     9 ar  
    15     8    36 1   
    16     9    10 1   
    17    10    11 1   
    18    10    14 1   
    19    11    12 1   
    20    11    37 1   
    21    11    38 1   
    22    12    13 1   
    23    12    39 1   
    24    12    40 1   
    25    13    14 ar  
    26    13    24 ar  
    27    14    15 ar  
    28    15    16 ar  
    29    16    17 1   
    30    16    23 ar  
    31    17    18 1   
    32    17    22 1   
    33    18    19 1   
    34    18    41 1   
    35    18    42 1   
    36    19    20 1   
    37    19    43 1   
    38    19    44 1   
    39    20    21 1   
    40    21    22 1   
    41    21    45 1   
    42    21    46 1   
    43    22    47 1   
    44    22    48 1   
    45    23    24 ar  
    46    24    25 1   
    47    25    26 ar  
    48    25    27 ar  
    49    26    30 ar  
    50    26    49 1   
    51    27    28 ar  
    52    27    50 1   
    53    28    29 ar  
    54    28    51 1   
    55    29    30 ar  
    56    29    52 1   
    57    30    31 1   
    58    31    53 1   
@<TRIPOS>SUBSTRUCTURE
     1 BMW         1 TEMP              0 ****  ****    0 ROOT
