@<TRIPOS>MOLECULE
BMW
   53    58     1     0     0
SMALL
bcc


@<TRIPOS>ATOM
      1 C1          -3.1950     0.3780    -0.5540 ca         1 BMW      -0.087000
      2 C2          -4.5770     0.2270    -0.4720 ca         1 BMW       0.087400
      3 N3          -5.3650    -0.8120    -0.9140 nc         1 BMW      -0.577100
      4 C5          -6.5820    -0.4570    -0.6090 cd         1 BMW       0.418700
      5 N6          -6.6580     0.7450     0.0060 na         1 BMW      -0.266300
      6 C7          -5.3770     1.2200     0.1130 ca         1 BMW      -0.104200
      7 C8          -4.8260     2.3810     0.6350 ca         1 BMW      -0.109000
      8 C9          -3.4530     2.5190     0.5630 ca         1 BMW      -0.154000
      9 C10         -2.6280     1.5340    -0.0250 ca         1 BMW       0.151600
     10 N11         -1.2510     1.7760    -0.0900 nh         1 BMW      -0.658700
     11 C12         -0.6910     3.1120     0.1270 c5         1 BMW       0.219800
     12 C13          0.7940     2.9830    -0.2440 c5         1 BMW      -0.010100
     13 C14          1.0070     1.5010    -0.2170 ca         1 BMW      -0.423900
     14 C15         -0.2450     0.8600    -0.1640 ca         1 BMW       0.735200
     15 N16         -0.4100    -0.4430    -0.1600 nb         1 BMW      -0.814000
     16 C17          0.7250    -1.1610    -0.1780 ca         1 BMW       0.949900
     17 N18          0.5890    -2.5150    -0.1510 nh         1 BMW      -0.766300
     18 C19          1.7210    -3.3800    -0.4230 c6         1 BMW       0.184800
     19 C20          1.5540    -4.6980     0.3080 c6         1 BMW       0.117900
     20 O21          0.3230    -5.3160     0.0090 os         1 BMW      -0.400600
     21 C22         -0.7500    -4.4750     0.3670 c6         1 BMW       0.117900
     22 C23         -0.6990    -3.1460    -0.3640 c6         1 BMW       0.184800
     23 N24          1.9540    -0.6650    -0.2000 nb         1 BMW      -0.815000
     24 C25          2.1020     0.6710    -0.2280 cp         1 BMW       0.583800
     25 C26          3.4950     1.1660    -0.2310 cp         1 BMW      -0.109500
     26 C27          4.4800     0.4110     0.4060 ca         1 BMW      -0.182000
     27 C28          3.8480     2.3580    -0.8610 ca         1 BMW      -0.147000
     28 C29          5.1690     2.7840    -0.8380 ca         1 BMW      -0.103000
     29 C30          6.1450     2.0470    -0.1890 ca         1 BMW      -0.151000
     30 C31          5.7970     0.8520     0.4390 ca         1 BMW       0.129100
     31 O32          6.7740     0.1640     1.0610 oh         1 BMW      -0.496100
     32 H1          -2.5940    -0.3880    -1.0190 ha         1 BMW       0.175000
     33 H5          -7.4690    -1.0390    -0.8110 h5         1 BMW       0.060800
     34 HN6         -7.5030     1.2000     0.3120 hn         1 BMW       0.306700
     35 H8          -5.4320     3.1550     1.0870 ha         1 BMW       0.135000
     36 H9          -3.0140     3.4140     0.9790 ha         1 BMW       0.131000
     37 H12         -1.2100     3.8480    -0.4860 h1         1 BMW       0.051700
     38 H12A        -0.8060     3.4030     1.1750 h1         1 BMW       0.051700
     39 H13          0.9750     3.3960    -1.2390 hc         1 BMW       0.059700
     40 H13A         1.4290     3.5300     0.4530 hc         1 BMW       0.059700
     41 H19          1.8130    -3.5600    -1.5020 h1         1 BMW       0.064950
     42 H19A         2.6390    -2.9010    -0.0910 h1         1 BMW       0.064950
     43 H20          2.3480    -5.3850     0.0110 h1         1 BMW       0.052950
     44 H20A         1.6430    -4.5280     1.3910 h1         1 BMW       0.052950
     45 H22         -1.6750    -4.9950     0.1150 h1         1 BMW       0.052950
     46 H22A        -0.7470    -4.2930     1.4520 h1         1 BMW       0.052950
     47 H23         -1.4930    -2.5050     0.0110 h1         1 BMW       0.064950
     48 H23A        -0.8780    -3.3020    -1.4360 h1         1 BMW       0.064950
     49 H27          4.2060    -0.5230     0.8830 ha         1 BMW       0.150000
     50 H28          3.1140     2.9410    -1.3980 ha         1 BMW       0.135000
     51 H29          5.4430     3.7040    -1.3370 ha         1 BMW       0.133000
     52 H30          7.1730     2.3870    -0.1700 ha         1 BMW       0.146000
     53 HO32         6.4210    -0.6420     1.4540 ho         1 BMW       0.427000
@<TRIPOS>BOND
     1     1     2 ar  
     2     1     9 ar  
     3     1    32 1   
     4     2     3 1   
     5     2     6 ar  
     6     3     4 2   
     7     4     5 1   
     8     4    33 1   
     9     5     6 1   
    10     5    34 1   
    11     6     7 ar  
    12     7     8 ar  
    13     7    35 1   
    14     8     9 ar  
    15     8    36 1   
    16     9    10 1   
    17    10    11 1   
    18    10    14 1   
    19    11    12 1   
    20    11    37 1   
    21    11    38 1   
    22    12    13 1   
    23    12    39 1   
    24    12    40 1   
    25    13    14 ar  
    26    13    24 ar  
    27    14    15 ar  
    28    15    16 ar  
    29    16    17 1   
    30    16    23 ar  
    31    17    18 1   
    32    17    22 1   
    33    18    19 1   
    34    18    41 1   
    35    18    42 1   
    36    19    20 1   
    37    19    43 1   
    38    19    44 1   
    39    20    21 1   
    40    21    22 1   
    41    21    45 1   
    42    21    46 1   
    43    22    47 1   
    44    22    48 1   
    45    23    24 ar  
    46    24    25 1   
    47    25    26 ar  
    48    25    27 ar  
    49    26    30 ar  
    50    26    49 1   
    51    27    28 ar  
    52    27    50 1   
    53    28    29 ar  
    54    28    51 1   
    55    29    30 ar  
    56    29    52 1   
    57    30    31 1   
    58    31    53 1   
@<TRIPOS>SUBSTRUCTURE
     1 BMW         1 TEMP              0 ****  ****    0 ROOT
