@<TRIPOS>MOLECULE
BMY
  176   185     1     0     0
SMALL
No Charge or Current Charge


@<TRIPOS>ATOM
      1 C1          20.5940    28.2370    27.1600 c3         1 BMY       0.141100
      2 N2          20.1180    28.3210    28.5560 n7         1 BMY      -0.857400
      3 C3          18.6470    28.1210    28.7580 c3         1 BMY       0.107500
      4 C4          18.1450    26.6990    28.3220 c          1 BMY       0.564100
      5 O5          18.2950    25.6970    29.0100 o          1 BMY      -0.589100
      6 C6          18.2950    28.4440    30.2390 c3         1 BMY      -0.068400
      7 C7          16.8030    28.2620    30.6470 c3         1 BMY      -0.066700
      8 C8          16.6070    28.5250    32.1570 c3         1 BMY      -0.090100
      9 C9          15.8390    29.1360    29.8150 c3         1 BMY      -0.090100
     10 N10         17.4770    26.6480    27.1130 ns         1 BMY      -0.510900
     11 Cl1         12.8540    25.6100    22.1180 cl         1 BMY      -0.160000
     12 Cl2         14.0910    33.4750    23.8560 cl         1 BMY      -0.176000
     13 C11         17.0020    25.3830    26.4740 c3         1 BMY       0.024700
     14 C12         15.5100    25.0910    26.7940 c          1 BMY       0.601100
     15 O13         14.9540    24.0660    26.4290 o          1 BMY      -0.581100
     16 C14         17.2860    25.3020    24.9450 c3         1 BMY       0.216600
     17 O15         18.6450    25.6700    24.6730 oh         1 BMY      -0.649000
     18 C16         16.3400    26.1760    24.1210 ca         1 BMY      -0.139300
     19 C17         15.2340    25.5810    23.4750 ca         1 BMY      -0.078000
     20 C18         16.5150    27.5740    24.0400 ca         1 BMY      -0.101000
     21 C19         14.2830    26.3730    22.8130 ca         1 BMY       0.105000
     22 C20         15.5640    28.3670    23.3780 ca         1 BMY      -0.115000
     23 C21         14.4340    27.7720    22.7880 ca         1 BMY       0.103100
     24 O22         13.4010    28.5720    22.3600 os         1 BMY      -0.202200
     25 N24         14.8400    26.0500    27.5400 ns         1 BMY      -0.508900
     26 C25         13.5080    25.8430    28.1710 c3         1 BMY       0.041700
     27 C26         12.5260    27.0490    28.0030 c          1 BMY       0.594100
     28 O27         11.3780    27.0030    28.4230 o          1 BMY      -0.592100
     29 C28         13.6890    25.4430    29.6610 c3         1 BMY      -0.185400
     30 C29         14.3320    24.0660    29.8130 c          1 BMY       0.603100
     31 O30         13.6990    23.0280    29.7380 o          1 BMY      -0.596100
     32 N31         15.6600    24.0390    30.0550 nt         1 BMY      -0.610000
     33 N32         13.0010    28.1760    27.3620 ns         1 BMY      -0.486900
     34 C33         12.2070    29.4090    27.1110 c3         1 BMY       0.074000
     35 C34         12.8690    30.5940    27.8620 c          1 BMY       0.579100
     36 O35         14.0680    30.8310    27.7940 o          1 BMY      -0.604100
     37 C36         12.1150    29.7740    25.6140 ca         1 BMY      -0.032300
     38 C37         11.5580    31.0040    25.2130 ca         1 BMY      -0.176000
     39 C38         12.6680    28.9480    24.6220 ca         1 BMY      -0.175000
     40 C39         11.5960    31.4330    23.8670 ca         1 BMY       0.134100
     41 C40         12.7300    29.3610    23.2750 ca         1 BMY       0.150100
     42 C41         12.1780    30.5950    22.8700 ca         1 BMY       0.070100
     43 O42         12.3060    30.9270    21.5220 os         1 BMY      -0.322100
     44 N43         12.0000    31.4440    28.5110 ns         1 BMY      -0.480900
     45 C44         12.3400    32.8270    28.8800 c3         1 BMY       0.085000
     46 C45         11.0490    33.7120    28.9360 c          1 BMY       0.599100
     47 O46          9.9230    33.2350    28.9110 o          1 BMY      -0.629100
     48 C47         13.1310    32.9340    30.1890 ca         1 BMY      -0.153300
     49 C48         14.4010    33.5450    30.1940 ca         1 BMY      -0.047000
     50 C49         12.5550    32.5430    31.4110 ca         1 BMY      -0.041000
     51 C50         15.0670    33.8540    31.4010 cp         1 BMY      -0.032000
     52 C51         13.2280    32.7910    32.6200 ca         1 BMY      -0.215000
     53 C52         14.4660    33.4570    32.6230 ca         1 BMY       0.179100
     54 O53         15.0620    33.7300    33.8200 oh         1 BMY      -0.506100
     55 N54         11.2040    35.0690    29.1270 ns         1 BMY      -0.464900
     56 C55         12.4080    35.8640    28.7630 c3         1 BMY       0.028700
     57 C56         12.9370    36.6390    29.9930 c          1 BMY       0.588100
     58 O57         12.2220    37.0570    30.8940 o          1 BMY      -0.582100
     59 C58         12.1660    36.7300    27.5080 c3         1 BMY       0.214600
     60 O59         11.0500    37.6000    27.7690 os         1 BMY      -0.465000
     61 C60         11.8630    35.7980    26.3260 ca         1 BMY      -0.113300
     62 C61         10.5430    35.3920    26.0210 ca         1 BMY      -0.076000
     63 C62         12.9370    35.2090    25.6250 ca         1 BMY      -0.092000
     64 C63         10.3090    34.3850    25.0680 ca         1 BMY      -0.110000
     65 C64         12.7060    34.2000    24.6750 ca         1 BMY       0.093000
     66 C65         11.3870    33.7670    24.4160 ca         1 BMY       0.095100
     67 O66         11.1360    32.7030    23.5770 os         1 BMY      -0.238200
     68 N68         14.3150    36.7030    30.0650 ns         1 BMY      -0.451900
     69 C69         15.0610    36.8540    31.3370 c3         1 BMY      -0.007000
     70 C70         15.2280    38.3530    31.7410 c          1 BMY       0.730000
     71 O71         15.4130    39.1880    30.8640 o          1 BMY      -0.710500
     72 C72         16.3740    36.0450    31.3090 ca         1 BMY       0.028700
     73 C73         16.3570    34.6150    31.3580 cp         1 BMY      -0.109000
     74 C74         17.6190    36.7080    31.2150 ca         1 BMY      -0.140000
     75 C75         17.5880    33.9120    31.3320 ca         1 BMY       0.176100
     76 C76         18.8080    34.5930    31.2550 ca         1 BMY      -0.318000
     77 C77         18.8180    35.9870    31.1930 ca         1 BMY       0.164100
     78 O78         20.0040    36.6450    31.1080 oh         1 BMY      -0.530100
     79 O79         17.6210    32.5510    31.3690 oh         1 BMY      -0.537100
     80 O80         15.1910    38.6330    32.9320 o          1 BMY      -0.710500
     81 C10         10.8700    38.6970    26.8630 c6         1 BMY       0.385300
     82 C2           9.5210    39.4220    27.1110 c6         1 BMY      -0.086400
     83 C13          9.4840    40.2680    28.4250 c6         1 BMY       0.220200
     84 C15         10.7980    41.1830    28.4970 c6         1 BMY       0.338000
     85 C5          12.0630    40.2670    28.2930 c6         1 BMY       0.108300
     86 O6          11.9800    39.6120    27.0050 os         1 BMY      -0.478000
     87 C23          9.3120    39.3600    29.6880 c3         1 BMY      -0.080100
     88 N8           8.2770    41.1350    28.3710 n8         1 BMY      -1.004200
     89 O9          10.7360    42.1710    27.4760 oh         1 BMY      -0.737500
     90 O1          10.8650    41.9070    29.7160 oh         1 BMY      -0.737500
     91 C2B         13.4240    41.0170    28.3100 c3         1 BMY      -0.092100
     92 C3B         11.5090    31.9420    20.8830 c6         1 BMY       0.351300
     93 C4B         11.8840    32.0490    19.3700 c6         1 BMY       0.159300
     94 C5B         10.9630    33.1290    18.7090 c6         1 BMY       0.176300
     95 C22          9.4580    32.8110    18.9760 c6         1 BMY       0.089300
     96 C7B          9.2230    32.6330    20.5120 c6         1 BMY       0.121300
     97 O8          10.1120    31.6060    21.0120 os         1 BMY      -0.448000
     98 O9B         13.2930    32.3530    19.1900 oh         1 BMY      -0.698000
     99 O1A         11.1700    33.2250    17.2870 oh         1 BMY      -0.639000
    100 O2A          8.6300    33.8570    18.4180 oh         1 BMY      -0.724000
    101 C3A          7.7750    32.1840    20.8790 c3         1 BMY       0.163600
    102 O4A          7.5380    30.8110    20.5290 oh         1 BMY      -0.691000
    103 H1A         21.6730    28.4340    27.1080 h1         1 BMY       0.035033
    104 H1B         20.0840    28.9760    26.5270 h1         1 BMY       0.035033
    105 H1C         20.4130    27.2390    26.7370 h1         1 BMY       0.035033
    106 H2A         20.6190    27.6120    29.1110 hn         1 BMY       0.428000
    107 H3          18.1060    28.8460    28.1340 h1         1 BMY       0.068700
    108 H6A         18.9100    27.8070    30.8870 hc         1 BMY       0.057700
    109 H6B         18.5960    29.4780    30.4510 hc         1 BMY       0.057700
    110 H7          16.5280    27.2160    30.4750 hc         1 BMY       0.035700
    111 H8A         17.2490    27.8660    32.7540 hc         1 BMY       0.037200
    112 H8B         15.5670    28.3380    32.4520 hc         1 BMY       0.037200
    113 H8C         16.8520    29.5640    32.4090 hc         1 BMY       0.037200
    114 H9A         15.8910    28.8830    28.7510 hc         1 BMY       0.037200
    115 H9B         16.0810    30.2010    29.9280 hc         1 BMY       0.037200
    116 H9C         14.8030    28.9870    30.1410 hc         1 BMY       0.037200
    117 H10         17.4580    27.5000    26.5640 hn         1 BMY       0.317500
    118 H11         17.5510    24.5500    26.9310 h1         1 BMY       0.122700
    119 H14         17.1290    24.2570    24.6410 h1         1 BMY       0.067700
    120 H15         18.7410    25.6760    23.6960 ho         1 BMY       0.452000
    121 H17         15.0800    24.5050    23.5270 ha         1 BMY       0.148000
    122 H18         17.3660    28.0540    24.5170 ha         1 BMY       0.127000
    123 H20         15.6720    29.4490    23.3700 ha         1 BMY       0.139000
    124 H24         15.4070    26.8350    27.8400 hn         1 BMY       0.322500
    125 H25         13.0010    25.0170    27.6540 h1         1 BMY       0.130700
    126 H281        14.3100    26.2050    30.1440 hc         1 BMY       0.079200
    127 H282        12.7030    25.4070    30.1390 hc         1 BMY       0.079200
    128 H311        16.1200    23.1480    30.1640 hn         1 BMY       0.316000
    129 H312        16.1930    24.8950    30.0940 hn         1 BMY       0.316000
    130 H32         13.9580    28.1500    27.0330 hn         1 BMY       0.330500
    131 H33         11.1900    29.2840    27.5050 h1         1 BMY       0.107700
    132 H37         11.1160    31.6590    25.9590 ha         1 BMY       0.136000
    133 H38         13.0870    27.9860    24.8970 ha         1 BMY       0.136000
    134 H43         11.0190    31.1850    28.5310 hn         1 BMY       0.345500
    135 H44         12.9490    33.2190    28.0570 h1         1 BMY       0.075700
    136 H48         14.8640    33.8390    29.2550 ha         1 BMY       0.110000
    137 H49         11.5740    32.0720    31.4280 ha         1 BMY       0.116000
    138 H51         12.7640    32.4900    33.5560 ha         1 BMY       0.109000
    139 H53         14.4980    33.3670    34.5330 ho         1 BMY       0.457000
    140 H54         10.3420    35.5830    29.2610 hn         1 BMY       0.343500
    141 H55         13.2180    35.1890    28.4840 h1         1 BMY       0.062700
    142 H58         13.0760    37.3100    27.2980 h1         1 BMY       0.077700
    143 H61          9.6980    35.8130    26.5610 ha         1 BMY       0.137000
    144 H62         13.9600    35.5010    25.8480 ha         1 BMY       0.135000
    145 H63          9.2940    34.0500    24.8700 ha         1 BMY       0.134000
    146 H68         14.8340    36.3780    29.2590 hn         1 BMY       0.294500
    147 H69         14.4410    36.4170    32.1300 h1         1 BMY       0.080700
    148 H74         17.6750    37.7910    31.1560 ha         1 BMY       0.166000
    149 H76         19.7430    34.0390    31.2340 ha         1 BMY       0.099000
    150 H78         20.7200    35.9760    31.1060 ho         1 BMY       0.451000
    151 H79         18.5590    32.2760    31.3470 ho         1 BMY       0.449000
    152 H1          10.8620    38.3050    25.8340 h2         1 BMY       0.060700
    153 H2'1         8.7090    38.6830    27.1090 hc         1 BMY       0.063700
    154 H2'2         9.3300    40.0710    26.2470 hc         1 BMY       0.063700
    155 H5          12.0990    39.5070    29.0870 h1         1 BMY       0.111700
    156 H7'1         9.1680    39.9560    30.5970 hc         1 BMY       0.054033
    157 H7'2        10.1780    38.7170    29.8680 hc         1 BMY       0.054033
    158 H7'3         8.4390    38.7040    29.5890 hc         1 BMY       0.054033
    159 H8'1         8.6230    42.0070    27.9490 hn         1 BMY       0.404500
    160 H8'2         8.0790    41.4330    29.3300 hn         1 BMY       0.404500
    161 HO'9        11.4690    41.9460    26.8610 ho         1 BMY       0.510500
    162 HO'1        11.7180    42.3890    29.6890 ho         1 BMY       0.510500
    163 H2A1        14.2500    40.3190    28.1250 hc         1 BMY       0.048033
    164 H2A2        13.6130    41.4830    29.2840 hc         1 BMY       0.048033
    165 H2'3        13.4770    41.7990    27.5440 hc         1 BMY       0.048033
    166 H12         11.7100    32.9160    21.3500 h2         1 BMY       0.048700
    167 H4          11.6530    31.0790    18.9050 h1         1 BMY       0.062700
    168 H5B         11.1910    34.0980    19.1790 h1         1 BMY       0.053700
    169 H6           9.2260    31.8520    18.4870 h1         1 BMY       0.060700
    170 H13          9.4360    33.5780    21.0320 h1         1 BMY       0.051700
    171 H9          13.7930    31.6530    19.6730 ho         1 BMY       0.525000
    172 HOA1        10.3860    33.7210    16.9600 ho         1 BMY       0.451000
    173 HOA2         7.7330    33.4750    18.2620 ho         1 BMY       0.505000
    174 H3A1         7.6520    32.3190    21.9630 h1         1 BMY       0.054700
    175 H3A2         7.0480    32.8460    20.3900 h1         1 BMY       0.054700
    176 H4A          8.3770    30.3460    20.7610 ho         1 BMY       0.486000
@<TRIPOS>BOND
     1     1     2 1   
     2     1   103 1   
     3     1   104 1   
     4     1   105 1   
     5     2     3 1   
     6     2   106 1   
     7     3     4 1   
     8     3     6 1   
     9     3   107 1   
    10     4     5 2   
    11     4    10 1   
    12     6     7 1   
    13     6   108 1   
    14     6   109 1   
    15     7     8 1   
    16     7     9 1   
    17     7   110 1   
    18     8   111 1   
    19     8   112 1   
    20     8   113 1   
    21     9   114 1   
    22     9   115 1   
    23     9   116 1   
    24    10    13 1   
    25    10   117 1   
    26    11    21 1   
    27    12    65 1   
    28    13    14 1   
    29    13    16 1   
    30    13   118 1   
    31    14    15 2   
    32    14    25 1   
    33    16    17 1   
    34    16    18 1   
    35    16   119 1   
    36    17   120 1   
    37    18    19 ar  
    38    18    20 ar  
    39    19    21 ar  
    40    19   121 1   
    41    20    22 ar  
    42    20   122 1   
    43    21    23 ar  
    44    22    23 ar  
    45    22   123 1   
    46    23    24 1   
    47    24    41 1   
    48    25    26 1   
    49    25   124 1   
    50    26    27 1   
    51    26    29 1   
    52    26   125 1   
    53    27    28 2   
    54    27    33 1   
    55    29    30 1   
    56    29   126 1   
    57    29   127 1   
    58    30    31 2   
    59    30    32 1   
    60    32   128 1   
    61    32   129 1   
    62    33    34 1   
    63    33   130 1   
    64    34    35 1   
    65    34    37 1   
    66    34   131 1   
    67    35    36 2   
    68    35    44 1   
    69    37    38 ar  
    70    37    39 ar  
    71    38    40 ar  
    72    38   132 1   
    73    39    41 ar  
    74    39   133 1   
    75    40    42 ar  
    76    40    67 1   
    77    41    42 ar  
    78    42    43 1   
    79    43    92 1   
    80    44    45 1   
    81    44   134 1   
    82    45    46 1   
    83    45    48 1   
    84    45   135 1   
    85    46    47 2   
    86    46    55 1   
    87    48    49 ar  
    88    48    50 ar  
    89    49    51 ar  
    90    49   136 1   
    91    50    52 ar  
    92    50   137 1   
    93    51    53 ar  
    94    51    73 1   
    95    52    53 ar  
    96    52   138 1   
    97    53    54 1   
    98    54   139 1   
    99    55    56 1   
   100    55   140 1   
   101    56    57 1   
   102    56    59 1   
   103    56   141 1   
   104    57    58 2   
   105    57    68 1   
   106    59    60 1   
   107    59    61 1   
   108    59   142 1   
   109    60    81 1   
   110    61    62 ar  
   111    61    63 ar  
   112    62    64 ar  
   113    62   143 1   
   114    63    65 ar  
   115    63   144 1   
   116    64    66 ar  
   117    64   145 1   
   118    65    66 ar  
   119    66    67 1   
   120    68    69 1   
   121    68   146 1   
   122    69    70 1   
   123    69    72 1   
   124    69   147 1   
   125    70    71 1   
   126    70    80 1   
   127    72    73 ar  
   128    72    74 ar  
   129    73    75 ar  
   130    74    77 ar  
   131    74   148 1   
   132    75    76 ar  
   133    75    79 1   
   134    76    77 ar  
   135    76   149 1   
   136    77    78 1   
   137    78   150 1   
   138    79   151 1   
   139    81    82 1   
   140    81    86 1   
   141    81   152 1   
   142    82    83 1   
   143    82   153 1   
   144    82   154 1   
   145    83    84 1   
   146    83    87 1   
   147    83    88 1   
   148    84    85 1   
   149    84    89 1   
   150    84    90 1   
   151    85    86 1   
   152    85    91 1   
   153    85   155 1   
   154    87   156 1   
   155    87   157 1   
   156    87   158 1   
   157    88   159 1   
   158    88   160 1   
   159    89   161 1   
   160    90   162 1   
   161    91   163 1   
   162    91   164 1   
   163    91   165 1   
   164    92    93 1   
   165    92    97 1   
   166    92   166 1   
   167    93    94 1   
   168    93    98 1   
   169    93   167 1   
   170    94    95 1   
   171    94    99 1   
   172    94   168 1   
   173    95    96 1   
   174    95   100 1   
   175    95   169 1   
   176    96    97 1   
   177    96   101 1   
   178    96   170 1   
   179    98   171 1   
   180    99   172 1   
   181   100   173 1   
   182   101   102 1   
   183   101   174 1   
   184   101   175 1   
   185   102   176 1   
@<TRIPOS>SUBSTRUCTURE
     1 BMY         1 TEMP              0 ****  ****    0 ROOT
