@<TRIPOS>MOLECULE
BMY
  176   185     1     0     0
SMALL
bcc


@<TRIPOS>ATOM
      1 C1          19.9260    28.3380    25.8190 c3         1 BMY       0.141100
      2 N2          19.8520    28.4160    27.2650 n7         1 BMY      -0.802200
      3 C3          18.5230    28.2260    27.8080 c3         1 BMY       0.107500
      4 C4          17.9850    26.8200    27.5180 c          1 BMY       0.631100
      5 O5          18.5470    25.8270    27.9480 o          1 BMY      -0.589100
      6 C6          18.5460    28.4660    29.3170 c3         1 BMY      -0.068400
      7 C7          17.1990    28.3660    30.0370 c3         1 BMY      -0.066700
      8 C8          17.4180    28.4740    31.5420 c3         1 BMY      -0.090100
      9 C9          16.2160    29.4330    29.5680 c3         1 BMY      -0.090100
     10 N10         16.8540    26.7700    26.7730 ns         1 BMY      -0.577900
     11 CL1         12.0120    26.5390    22.3740 cl         1 BMY      -0.068400
     12 CL2         14.0020    33.8880    23.9720 cl         1 BMY      -0.084400
     13 C11         16.2160    25.5460    26.3710 c3         1 BMY       0.024700
     14 C12         14.7470    25.4770    26.7960 c          1 BMY       0.668100
     15 O13         14.0070    24.6210    26.3480 o          1 BMY      -0.581100
     16 C14         16.3870    25.2460    24.8630 c3         1 BMY       0.193400
     17 O15         17.7680    25.2470    24.6230 oh         1 BMY      -0.586800
     18 C16         15.6420    26.2520    24.0170 ca         1 BMY      -0.139300
     19 C17         14.3800    25.9360    23.5270 ca         1 BMY      -0.096000
     20 C18         16.1620    27.5230    23.7820 ca         1 BMY      -0.119000
     21 C19         13.6090    26.9070    22.9120 ca         1 BMY       0.013400
     22 C20         15.3820    28.4990    23.1850 ca         1 BMY      -0.133000
     23 C21         14.0870    28.2050    22.7910 ca         1 BMY       0.103100
     24 O22         13.2610    29.2010    22.3560 os         1 BMY      -0.202200
     25 N24         14.3650    26.3910    27.7110 ns         1 BMY      -0.575900
     26 C25         13.0910    26.3510    28.3850 c3         1 BMY       0.041700
     27 C26         12.1180    27.4630    27.9870 c          1 BMY       0.661100
     28 O27         10.9510    27.3910    28.3300 o          1 BMY      -0.592100
     29 C28         13.3000    26.4270    29.8960 c3         1 BMY      -0.185400
     30 C29         14.1110    25.2540    30.4150 c          1 BMY       0.670100
     31 O30         14.0320    24.1420    29.9170 o          1 BMY      -0.596100
     32 N31         14.8890    25.5340    31.4710 nt         1 BMY      -0.677000
     33 N32         12.6370    28.5010    27.3050 ns         1 BMY      -0.553900
     34 C33         11.9180    29.7270    27.0810 c3         1 BMY       0.074000
     35 C34         12.5830    30.8450    27.8890 c          1 BMY       0.646100
     36 O35         13.7820    31.0440    27.7970 o          1 BMY      -0.604100
     37 C36         11.9410    30.1910    25.6310 ca         1 BMY      -0.032300
     38 C37         11.4310    31.4450    25.3090 ca         1 BMY      -0.194000
     39 C38         12.5330    29.4190    24.6490 ca         1 BMY      -0.193000
     40 C39         11.5520    31.9240    24.0160 ca         1 BMY       0.134100
     41 C40         12.6300    29.8960    23.3450 ca         1 BMY       0.150100
     42 C41         12.1430    31.1560    23.0130 ca         1 BMY       0.070100
     43 O42         12.3410    31.6640    21.7700 os         1 BMY      -0.298900
     44 N43         11.7580    31.6100    28.6140 ns         1 BMY      -0.547900
     45 C44         12.1800    32.9110    29.0650 c3         1 BMY       0.085000
     46 C45         10.9300    33.7940    29.1720 c          1 BMY       0.666100
     47 O46          9.8240    33.2900    29.2790 o          1 BMY      -0.629100
     48 C47         12.9100    32.9490    30.3920 ca         1 BMY      -0.153300
     49 C48         14.1670    33.5320    30.4710 ca         1 BMY      -0.065000
     50 C49         12.3090    32.5220    31.5710 ca         1 BMY      -0.059000
     51 C50         14.8000    33.7830    31.6820 cp         1 BMY      -0.032000
     52 C51         12.9450    32.7010    32.7880 ca         1 BMY      -0.233000
     53 C52         14.1800    33.3490    32.8540 ca         1 BMY       0.179100
     54 O53         14.8080    33.5920    34.0180 oh         1 BMY      -0.467100
     55 N54         11.1170    35.1240    29.1890 ns         1 BMY      -0.531900
     56 C55         12.3460    35.8390    28.9920 c3         1 BMY       0.028700
     57 C56         12.8270    36.4210    30.3290 c          1 BMY       0.655100
     58 O57         12.0550    36.6140    31.2540 o          1 BMY      -0.582100
     59 C58         12.2260    36.8440    27.8340 c3         1 BMY       0.191400
     60 O59         11.2520    37.7860    28.1860 os         1 BMY      -0.418600
     61 C60         11.8960    36.0470    26.5880 ca         1 BMY      -0.113300
     62 C61         10.5910    35.7120    26.2480 ca         1 BMY      -0.094000
     63 C62         12.9440    35.4950    25.8620 ca         1 BMY      -0.110000
     64 C63         10.3390    34.7730    25.2580 ca         1 BMY      -0.128000
     65 C64         12.6930    34.5640    24.8690 ca         1 BMY       0.001400
     66 C65         11.3890    34.1650    24.5900 ca         1 BMY       0.095100
     67 O66         11.1400    33.1830    23.6710 os         1 BMY      -0.238200
     68 N68         14.1520    36.5900    30.4220 ns         1 BMY      -0.518900
     69 C69         14.8080    36.7200    31.7080 c3         1 BMY      -0.007000
     70 C70         14.9880    38.1860    32.1880 c          1 BMY       0.940600
     71 O71         14.9540    39.0800    31.3260 o          1 BMY      -0.815800
     72 C72         16.1110    35.9380    31.6720 ca         1 BMY       0.028700
     73 C73         16.0800    34.5360    31.7010 cp         1 BMY      -0.109000
     74 C74         17.3240    36.6080    31.5880 ca         1 BMY      -0.158000
     75 C75         17.2890    33.8390    31.6870 ca         1 BMY       0.176100
     76 C76         18.5060    34.5080    31.6250 ca         1 BMY      -0.336000
     77 C77         18.5190    35.8960    31.5690 ca         1 BMY       0.164100
     78 O78         19.6620    36.6040    31.4930 oh         1 BMY      -0.491100
     79 O79         17.2240    32.4940    31.7320 oh         1 BMY      -0.498100
     80 O80         15.1660    38.3070    33.4130 o          1 BMY      -0.815800
     81 C10         11.1820    38.9180    27.3460 c6         1 BMY       0.338900
     82 C2           9.9980    39.7690    27.7670 c6         1 BMY      -0.086400
     83 C13         10.2180    40.6340    29.0180 c6         1 BMY       0.220200
     84 C15         11.5990    41.3380    28.8660 c6         1 BMY       0.291600
     85 C5          12.7020    40.3050    28.5430 c6         1 BMY       0.085100
     86 O6          12.3840    39.6220    27.3410 os         1 BMY      -0.431600
     87 C23         10.1470    39.8020    30.2990 c3         1 BMY      -0.080100
     88 N8           9.1070    41.5770    29.0770 n8         1 BMY      -0.893800
     89 O9          11.4520    42.2500    27.8160 oh         1 BMY      -0.615300
     90 O1          11.8680    41.9820    30.0770 oh         1 BMY      -0.615300
     91 C2B         14.0900    40.8930    28.3520 c3         1 BMY      -0.092100
     92 C3B         11.2610    31.6010    20.8830 c6         1 BMY       0.304900
     93 C4B         11.5730    32.5500    19.7270 c6         1 BMY       0.136100
     94 C5B         10.4850    32.4030    18.6750 c6         1 BMY       0.153100
     95 C22         10.3260    30.9330    18.2910 c6         1 BMY       0.066100
     96 C7B         10.0650    30.0980    19.5480 c6         1 BMY       0.098100
     97 O8          11.1420    30.2840    20.4460 os         1 BMY      -0.401600
     98 O9B         11.6030    33.8830    20.1600 oh         1 BMY      -0.575800
     99 O1A         10.8220    33.1960    17.5680 oh         1 BMY      -0.576800
    100 O2A          9.2510    30.8520    17.3830 oh         1 BMY      -0.601800
    101 C3A          9.9090    28.6060    19.3010 c3         1 BMY       0.140400
    102 O4A         11.0230    28.0020    18.6920 oh         1 BMY      -0.568800
    103 H1A         20.9520    28.5190    25.5000 h1         1 BMY       0.035033
    104 H1B         19.3030    29.1180    25.3760 h1         1 BMY       0.035033
    105 H1C         19.6100    27.3800    25.3860 h1         1 BMY       0.035033
    106 H2A         20.4860    27.7440    27.6790 hn         1 BMY       0.372800
    107 H3          17.8740    28.9700    27.3340 h1         1 BMY       0.068700
    108 H6A         19.2470    27.7550    29.7670 hc         1 BMY       0.057700
    109 H6B         18.9630    29.4630    29.4860 hc         1 BMY       0.057700
    110 H7          16.7610    27.3800    29.8400 hc         1 BMY       0.035700
    111 H8A         18.0790    27.6870    31.9090 hc         1 BMY       0.037200
    112 H8B         16.4750    28.3970    32.0870 hc         1 BMY       0.037200
    113 H8C         17.8680    29.4350    31.8010 hc         1 BMY       0.037200
    114 H9A         15.9890    29.3600    28.5040 hc         1 BMY       0.037200
    115 H9B         16.6150    30.4340    29.7500 hc         1 BMY       0.037200
    116 H9C         15.2690    29.3550    30.1040 hc         1 BMY       0.037200
    117 H10         16.5060    27.6370    26.3910 hn         1 BMY       0.317500
    118 H11         16.7160    24.7360    26.9120 h1         1 BMY       0.122700
    119 H14         15.9560    24.2540    24.6860 h1         1 BMY       0.067700
    120 H15         17.9180    24.9990    23.7050 ho         1 BMY       0.413000
    121 H17         13.9780    24.9400    23.6600 ha         1 BMY       0.166000
    122 H18         17.1680    27.7700    24.0960 ha         1 BMY       0.145000
    123 H20         15.7580    29.5060    23.0610 ha         1 BMY       0.157000
    124 H24         15.0820    26.9890    28.0950 hn         1 BMY       0.322500
    125 H25         12.6060    25.4080    28.1330 h1         1 BMY       0.130700
    126 H281        13.7720    27.3780    30.1620 hc         1 BMY       0.079200
    127 H282        12.3310    26.4090    30.4000 hc         1 BMY       0.079200
    128 H311        15.4060    24.8010    31.9310 hn         1 BMY       0.316000
    129 H312        14.9230    26.4520    31.8810 hn         1 BMY       0.316000
    130 H32         13.6290    28.5060    27.1160 hn         1 BMY       0.330500
    131 H33         10.8860    29.5720    27.4010 h1         1 BMY       0.107700
    132 H37         10.9630    32.0630    26.0660 ha         1 BMY       0.154000
    133 H38         12.9320    28.4490    24.9090 ha         1 BMY       0.154000
    134 H43         10.7690    31.4060    28.6550 hn         1 BMY       0.345500
    135 H44         12.8480    33.3080    28.2970 h1         1 BMY       0.075700
    136 H48         14.6700    33.8420    29.5610 ha         1 BMY       0.128000
    137 H49         11.3310    32.0550    31.5540 ha         1 BMY       0.134000
    138 H51         12.4650    32.3580    33.6980 ha         1 BMY       0.127000
    139 H53         14.2830    33.2680    34.7590 ho         1 BMY       0.418000
    140 H54         10.2870    35.6760    29.3610 hn         1 BMY       0.343500
    141 H55         13.1090    35.1410    28.6610 h1         1 BMY       0.062700
    142 H58         13.2100    37.3130    27.7070 h1         1 BMY       0.077700
    143 H61          9.7550    36.1480    26.7800 ha         1 BMY       0.155000
    144 H62         13.9680    35.7660    26.0900 ha         1 BMY       0.153000
    145 H63          9.3220    34.4830    25.0240 ha         1 BMY       0.152000
    146 H68         14.7270    36.4150    29.6130 hn         1 BMY       0.294500
    147 H69         14.1580    36.2340    32.4400 h1         1 BMY       0.080700
    148 H74         17.3590    37.6880    31.5320 ha         1 BMY       0.184000
    149 H76         19.4370    33.9490    31.6160 ha         1 BMY       0.117000
    150 H78         20.4270    36.0180    31.4780 ho         1 BMY       0.412000
    151 H79         18.1070    32.1080    31.7020 ho         1 BMY       0.410000
    152 H1          11.0440    38.5920    26.3080 h2         1 BMY       0.060700
    153 H2'1         9.1250    39.1290    27.9090 hc         1 BMY       0.063700
    154 H2'2         9.7670    40.4230    26.9220 hc         1 BMY       0.063700
    155 H5          12.7690    39.6010    29.3810 h1         1 BMY       0.111700
    156 H7'1        10.1200    40.4440    31.1790 hc         1 BMY       0.054033
    157 H7'2        10.9770    39.1110    30.4220 hc         1 BMY       0.054033
    158 H7'3         9.2290    39.2130    30.2940 hc         1 BMY       0.054033
    159 H8'1         9.1320    42.1960    28.2760 hn         1 BMY       0.349300
    160 H8'2         9.2010    42.1680    29.8940 hn         1 BMY       0.349300
    161 HO'9        12.3110    42.5530    27.5010 ho         1 BMY       0.411500
    162 HO'1        12.6790    42.4990    30.0080 ho         1 BMY       0.411500
    163 H2A1        14.8040    40.0900    28.1720 hc         1 BMY       0.048033
    164 H2A2        14.4290    41.4150    29.2470 hc         1 BMY       0.048033
    165 H2'3        14.1550    41.5790    27.5060 hc         1 BMY       0.048033
    166 H12         10.3280    31.9220    21.3790 h2         1 BMY       0.048700
    167 H4          12.5340    32.2410    19.2860 h1         1 BMY       0.062700
    168 H5B          9.5320    32.7350    19.1230 h1         1 BMY       0.053700
    169 H6          11.2640    30.5970    17.8280 h1         1 BMY       0.060700
    170 H13          9.1230    30.4420    20.0060 h1         1 BMY       0.051700
    171 H9          12.3600    33.9990    20.7440 ho         1 BMY       0.426000
    172 HOA1        10.1470    33.0550    16.8950 ho         1 BMY       0.412000
    173 HOA2         9.4200    30.1490    16.7500 ho         1 BMY       0.406000
    174 H3A1         9.7660    28.1180    20.2690 h1         1 BMY       0.054700
    175 H3A2         8.9860    28.4450    18.7330 h1         1 BMY       0.054700
    176 H4A         10.9850    28.1570    17.7440 ho         1 BMY       0.387000
@<TRIPOS>BOND
     1     1     2 1   
     2     1   103 1   
     3     1   104 1   
     4     1   105 1   
     5     2     3 1   
     6     2   106 1   
     7     3     4 1   
     8     3     6 1   
     9     3   107 1   
    10     4     5 2   
    11     4    10 1   
    12     6     7 1   
    13     6   108 1   
    14     6   109 1   
    15     7     8 1   
    16     7     9 1   
    17     7   110 1   
    18     8   111 1   
    19     8   112 1   
    20     8   113 1   
    21     9   114 1   
    22     9   115 1   
    23     9   116 1   
    24    10    13 1   
    25    10   117 1   
    26    11    21 1   
    27    12    65 1   
    28    13    14 1   
    29    13    16 1   
    30    13   118 1   
    31    14    15 2   
    32    14    25 1   
    33    16    17 1   
    34    16    18 1   
    35    16   119 1   
    36    17   120 1   
    37    18    19 ar  
    38    18    20 ar  
    39    19    21 ar  
    40    19   121 1   
    41    20    22 ar  
    42    20   122 1   
    43    21    23 ar  
    44    22    23 ar  
    45    22   123 1   
    46    23    24 1   
    47    24    41 1   
    48    25    26 1   
    49    25   124 1   
    50    26    27 1   
    51    26    29 1   
    52    26   125 1   
    53    27    28 2   
    54    27    33 1   
    55    29    30 1   
    56    29   126 1   
    57    29   127 1   
    58    30    31 2   
    59    30    32 1   
    60    32   128 1   
    61    32   129 1   
    62    33    34 1   
    63    33   130 1   
    64    34    35 1   
    65    34    37 1   
    66    34   131 1   
    67    35    36 2   
    68    35    44 1   
    69    37    38 ar  
    70    37    39 ar  
    71    38    40 ar  
    72    38   132 1   
    73    39    41 ar  
    74    39   133 1   
    75    40    42 ar  
    76    40    67 1   
    77    41    42 ar  
    78    42    43 1   
    79    43    92 1   
    80    44    45 1   
    81    44   134 1   
    82    45    46 1   
    83    45    48 1   
    84    45   135 1   
    85    46    47 2   
    86    46    55 1   
    87    48    49 ar  
    88    48    50 ar  
    89    49    51 ar  
    90    49   136 1   
    91    50    52 ar  
    92    50   137 1   
    93    51    53 ar  
    94    51    73 1   
    95    52    53 ar  
    96    52   138 1   
    97    53    54 1   
    98    54   139 1   
    99    55    56 1   
   100    55   140 1   
   101    56    57 1   
   102    56    59 1   
   103    56   141 1   
   104    57    58 2   
   105    57    68 1   
   106    59    60 1   
   107    59    61 1   
   108    59   142 1   
   109    60    81 1   
   110    61    62 ar  
   111    61    63 ar  
   112    62    64 ar  
   113    62   143 1   
   114    63    65 ar  
   115    63   144 1   
   116    64    66 ar  
   117    64   145 1   
   118    65    66 ar  
   119    66    67 1   
   120    68    69 1   
   121    68   146 1   
   122    69    70 1   
   123    69    72 1   
   124    69   147 1   
   125    70    71 1   
   126    70    80 1   
   127    72    73 ar  
   128    72    74 ar  
   129    73    75 ar  
   130    74    77 ar  
   131    74   148 1   
   132    75    76 ar  
   133    75    79 1   
   134    76    77 ar  
   135    76   149 1   
   136    77    78 1   
   137    78   150 1   
   138    79   151 1   
   139    81    82 1   
   140    81    86 1   
   141    81   152 1   
   142    82    83 1   
   143    82   153 1   
   144    82   154 1   
   145    83    84 1   
   146    83    87 1   
   147    83    88 1   
   148    84    85 1   
   149    84    89 1   
   150    84    90 1   
   151    85    86 1   
   152    85    91 1   
   153    85   155 1   
   154    87   156 1   
   155    87   157 1   
   156    87   158 1   
   157    88   159 1   
   158    88   160 1   
   159    89   161 1   
   160    90   162 1   
   161    91   163 1   
   162    91   164 1   
   163    91   165 1   
   164    92    93 1   
   165    92    97 1   
   166    92   166 1   
   167    93    94 1   
   168    93    98 1   
   169    93   167 1   
   170    94    95 1   
   171    94    99 1   
   172    94   168 1   
   173    95    96 1   
   174    95   100 1   
   175    95   169 1   
   176    96    97 1   
   177    96   101 1   
   178    96   170 1   
   179    98   171 1   
   180    99   172 1   
   181   100   173 1   
   182   101   102 1   
   183   101   174 1   
   184   101   175 1   
   185   102   176 1   
@<TRIPOS>SUBSTRUCTURE
     1 BMY         1 TEMP              0 ****  ****    0 ROOT
