@<TRIPOS>MOLECULE
BMZ
   32    34     1     0     0
SMALL
bcc


@<TRIPOS>ATOM
      1 H1           3.2520    -0.0060    -0.0340 ca         1 BMZ      -0.199000
      2 H2           3.1490    -1.3970    -0.2170 ca         1 BMZ      -0.095000
      3 H3           1.9190    -2.0180    -0.2850 ca         1 BMZ      -0.100000
      4 H4           0.8000    -1.2090    -0.1520 ca         1 BMZ       0.006000
      5 H5           0.8890     0.1800     0.0400 ca         1 BMZ      -0.042000
      6 H6           2.1270     0.8000     0.0940 ca         1 BMZ      -0.017000
      7 H7           4.5800     0.6080     0.0200 c2         1 BMZ       0.354000
      8 H1           4.7740     1.7630    -0.5690 n8         1 BMZ      -0.317500
      9 H2           5.5460    -0.0110     0.6550 n8         1 BMZ      -0.317500
     10 H3          -0.5370    -1.4780    -0.1580 na         1 BMZ      -0.198000
     11 H4          -0.3690     0.7050     0.1510 n2         1 BMZ      -0.217000
     12 H8          -1.2010    -0.3040     0.0270 cc         1 BMZ       0.152000
     13 H9          -2.6420    -0.1640     0.0900 ca         1 BMZ      -0.197000
     14 H10         -3.4990    -1.2540    -0.0970 ca         1 BMZ      -0.062000
     15 H11         -4.8680    -1.1130    -0.0210 ca         1 BMZ      -0.170000
     16 H12         -5.4060     0.1440     0.2480 ca         1 BMZ      -0.043000
     17 H13         -4.5850     1.2380     0.4320 ca         1 BMZ      -0.181000
     18 H14         -3.1970     1.1070     0.3540 ca         1 BMZ       0.184000
     19 H6          -2.4580     2.1970     0.5360 oh         1 BMZ      -0.249000
     20 HC2          4.0400    -1.9950    -0.3460 ha         1 BMZ       0.144000
     21 HC3          1.8450    -3.0850    -0.4410 ha         1 BMZ       0.166000
     22 HC6          2.1990     1.8660     0.2650 ha         1 BMZ       0.160000
     23 HH11         4.0920     2.1320    -1.2090 ha         1 BMZ       0.275750
     24 HH12         5.6420     2.2690    -0.5110 ha         1 BMZ       0.275750
     25 HH21         6.4980     0.3160     0.6610 ha         1 BMZ       0.275750
     26 HH22         5.3490    -0.8020     1.2440 ha         1 BMZ       0.275750
     27 HN3         -0.9440    -2.3890    -0.2720 ha         1 BMZ       0.280000
     28 H1          -3.0990    -2.2360    -0.3120 ha         1 BMZ       0.118000
     29 H2          -5.5120    -1.9660    -0.1720 ha         1 BMZ       0.149000
     30 HC4         -6.4780     0.2690     0.3120 ha         1 BMZ       0.149000
     31 HC5         -5.0060     2.2130     0.6390 ha         1 BMZ       0.162000
     32 HO6         -1.5030     1.9610     0.4410 ha         1 BMZ       0.277000
@<TRIPOS>BOND
     1     1     2 ar  
     2     1     6 ar  
     3     1     7 1   
     4     2     3 ar  
     5     2    20 1   
     6     3     4 ar  
     7     3    21 1   
     8     4     5 ar  
     9     4    10 1   
    10     5     6 ar  
    11     5    11 1   
    12     6    22 1   
    13     7     8 2   
    14     7     9 1   
    15     8    23 1   
    16     8    24 1   
    17     9    25 1   
    18     9    26 1   
    19    10    12 1   
    20    10    27 1   
    21    11    12 2   
    22    12    13 1   
    23    13    14 ar  
    24    13    18 ar  
    25    14    15 ar  
    26    14    28 1   
    27    15    16 ar  
    28    15    29 1   
    29    16    17 ar  
    30    16    30 1   
    31    17    18 ar  
    32    17    31 1   
    33    18    19 1   
    34    19    32 1   
@<TRIPOS>SUBSTRUCTURE
     1 BMZ         1 TEMP              0 ****  ****    0 ROOT
