@<TRIPOS>MOLECULE
BMZ
   32    34     1     0     0
SMALL
No Charge or Current Charge


@<TRIPOS>ATOM
      1 C1           3.3180    -0.0170    -0.0410 ca         1 BMZ      -0.282900
      2 C2           3.1780    -1.4170    -0.2530 ca         1 BMZ      -0.077000
      3 C3           1.9000    -2.0100    -0.3100 ca         1 BMZ      -0.082000
      4 C4           0.7840    -1.1810    -0.1510 ca         1 BMZ      -0.039200
      5 C5           0.8920     0.1610     0.0540 ca         1 BMZ       0.097400
      6 C6           2.1510     0.7780     0.1140 ca         1 BMZ       0.001000
      7 C7           4.6660     0.6090     0.0210 ce         1 BMZ       0.531400
      8 N1           4.8490     1.8680    -0.4790 nv         1 BMZ      -0.572200
      9 N2           5.7040    -0.0850     0.5770 nv         1 BMZ      -0.556300
     10 N3          -0.5410    -1.5120    -0.1650 na         1 BMZ      -0.291600
     11 N4          -0.3520     0.7530     0.1820 nc         1 BMZ      -0.644100
     12 C8          -1.1970    -0.2930     0.0440 cd         1 BMZ       0.562400
     13 C9          -2.6680    -0.1250     0.1130 ca         1 BMZ      -0.280900
     14 C10         -3.5090    -1.2550    -0.0400 ca         1 BMZ      -0.044000
     15 C11         -4.9060    -1.1270     0.0200 ca         1 BMZ      -0.152000
     16 C12         -5.4940     0.1270     0.2340 ca         1 BMZ      -0.025000
     17 C13         -4.6760     1.2560     0.3870 ca         1 BMZ      -0.163000
     18 C14         -3.2800     1.1360     0.3280 ca         1 BMZ       0.229100
     19 O6          -2.5340     2.2620     0.4830 oh         1 BMZ      -0.534100
     20 HC2          4.0540    -2.0500    -0.3870 ha         1 BMZ       0.126000
     21 HC3          1.7870    -3.0800    -0.4750 ha         1 BMZ       0.148000
     22 HC6          2.2110     1.8490     0.2920 ha         1 BMZ       0.142000
     23 HH11         4.1270     2.2390    -1.0810 hn         1 BMZ       0.375750
     24 HH12         5.7940     2.1950    -0.6290 hn         1 BMZ       0.375750
     25 HH21         6.5460     0.4200     0.8160 hn         1 BMZ       0.375750
     26 HH22         5.4830    -0.9100     1.1170 hn         1 BMZ       0.375750
     27 HN3         -0.9670    -2.4180    -0.2940 hn         1 BMZ       0.380000
     28 H1          -3.0920    -2.2450    -0.2080 ha         1 BMZ       0.100000
     29 H2          -5.5360    -2.0060    -0.0990 ha         1 BMZ       0.131000
     30 HC4         -6.5770     0.2250     0.2810 ha         1 BMZ       0.131000
     31 HC5         -5.1270     2.2310     0.5530 ha         1 BMZ       0.144000
     32 HO6         -1.5890     1.9640     0.4090 ho         1 BMZ       0.517000
@<TRIPOS>BOND
     1     1     2 ar  
     2     1     6 ar  
     3     1     7 1   
     4     2     3 ar  
     5     2    20 1   
     6     3     4 ar  
     7     3    21 1   
     8     4     5 ar  
     9     4    10 1   
    10     5     6 ar  
    11     5    11 1   
    12     6    22 1   
    13     7     8 2   
    14     7     9 1   
    15     8    23 1   
    16     8    24 1   
    17     9    25 1   
    18     9    26 1   
    19    10    12 1   
    20    10    27 1   
    21    11    12 2   
    22    12    13 1   
    23    13    14 ar  
    24    13    18 ar  
    25    14    15 ar  
    26    14    28 1   
    27    15    16 ar  
    28    15    29 1   
    29    16    17 ar  
    30    16    30 1   
    31    17    18 ar  
    32    17    31 1   
    33    18    19 1   
    34    19    32 1   
@<TRIPOS>SUBSTRUCTURE
     1 BMZ         1 TEMP              0 ****  ****    0 ROOT
