@<TRIPOS>MOLECULE
BN1
   27    28     1     0     0
SMALL
abcg2


@<TRIPOS>ATOM
      1 O1          -3.9680     1.4720    -0.9540 o          1 BN1      -0.731500
      2 C1          -3.1680     1.8830    -0.0880 c          1 BN1       0.695000
      3 O2          -3.1130     3.0340     0.3850 o          1 BN1      -0.731500
      4 C2          -2.1690     0.8330     0.4680 c3         1 BN1       0.020500
      5 N1          -1.1740     1.3330     1.3990 n8         1 BN1      -1.005200
      6 C3          -1.4780     0.1010    -0.6910 c3         1 BN1       0.001900
      7 C4          -0.5890    -0.9960    -0.2270 cc         1 BN1      -0.085300
      8 C5           0.7420    -1.0410     0.0160 cd         1 BN1       0.119000
      9 O3           1.1090    -2.2530     0.4530 os         1 BN1      -0.067700
     10 N2           0.0070    -3.0580     0.5210 nd         1 BN1      -0.483300
     11 C6          -0.9860    -2.3190     0.1230 cc         1 BN1       0.497300
     12 O4          -2.2360    -2.7500     0.0480 oh         1 BN1      -0.610300
     13 C7           1.7960    -0.0610    -0.1100 cd         1 BN1       0.481000
     14 N3           3.0680    -0.3150     0.1350 nc         1 BN1      -0.514800
     15 N4           3.6240     0.8390    -0.1110 na         1 BN1       0.235600
     16 N5           2.7830     1.7590    -0.4840 nc         1 BN1      -0.190800
     17 N6           1.6130     1.2130    -0.4910 nd         1 BN1      -0.332000
     18 C8           5.0460     1.0740     0.0170 c3         1 BN1       0.080900
     19 H2          -2.7750     0.0910     1.0070 h1         1 BN1       0.043700
     20 H3          -0.5600     1.9750     0.9100 hn         1 BN1       0.387500
     21 H4          -1.6470     1.9080     2.0860 hn         1 BN1       0.387500
     22 H5          -0.9030     0.8160    -1.2820 hc         1 BN1       0.068700
     23 H6          -2.2430    -0.3090    -1.3490 hc         1 BN1       0.068700
     24 H7          -2.2950    -3.6780     0.3090 ho         1 BN1       0.469000
     25 H8           5.5830     0.4160    -0.6600 h1         1 BN1       0.065367
     26 H9           5.2410     2.1090    -0.2410 h1         1 BN1       0.065367
     27 H10          5.3540     0.8830     1.0410 h1         1 BN1       0.065367
@<TRIPOS>BOND
     1     1     2 1   
     2     2     3 1   
     3     2     4 1   
     4     4     5 1   
     5     4     6 1   
     6     4    19 1   
     7     5    20 1   
     8     5    21 1   
     9     6     7 1   
    10     6    22 1   
    11     6    23 1   
    12     7     8 2   
    13     7    11 1   
    14     8     9 1   
    15     8    13 1   
    16     9    10 1   
    17    10    11 2   
    18    11    12 1   
    19    12    24 1   
    20    13    14 2   
    21    13    17 1   
    22    14    15 1   
    23    15    16 1   
    24    15    18 1   
    25    16    17 2   
    26    18    25 1   
    27    18    26 1   
    28    18    27 1   
@<TRIPOS>SUBSTRUCTURE
     1 BN1         1 TEMP              0 ****  ****    0 ROOT
