@<TRIPOS>MOLECULE
BN1
   27    28     1     0     0
SMALL
No Charge or Current Charge


@<TRIPOS>ATOM
      1 O1          -4.3680     1.6780    -0.1180 o          1 BN1      -0.731500
      2 C1          -3.1660     1.8920    -0.2040 c          1 BN1       0.695000
      3 O2          -2.7040     2.9310    -0.6570 o          1 BN1      -0.731500
      4 C2          -2.1700     0.8350     0.4250 c3         1 BN1       0.020500
      5 N1          -1.2060     1.3620     1.4640 n8         1 BN1      -1.005200
      6 C3          -1.4180     0.0820    -0.7040 c3         1 BN1       0.001900
      7 C4          -0.5390    -1.0470    -0.2020 cc         1 BN1      -0.085300
      8 C5           0.8020    -1.1550     0.0590 cd         1 BN1       0.119000
      9 O3           1.1180    -2.4150     0.5110 os         1 BN1      -0.067700
     10 N2          -0.0900    -3.1920     0.5510 nd         1 BN1      -0.483300
     11 C6          -0.9980    -2.3390     0.1310 cc         1 BN1       0.497300
     12 O4          -2.2800    -2.6990     0.0220 oh         1 BN1      -0.610300
     13 C7           1.8080    -0.1240    -0.0950 cd         1 BN1       0.481000
     14 N3           3.0810    -0.3450     0.1900 nc         1 BN1      -0.514800
     15 N4           3.6270     0.8600    -0.1040 na         1 BN1       0.235600
     16 N5           2.7370     1.7800    -0.5560 nc         1 BN1      -0.190800
     17 N6           1.5920     1.1620    -0.5510 nd         1 BN1      -0.332000
     18 C8           5.0600     1.1470     0.0420 c3         1 BN1       0.080900
     19 H2          -2.7990     0.0940     0.9380 h1         1 BN1       0.043700
     20 H3          -0.6530     2.1170     1.0380 hn         1 BN1       0.387500
     21 H4          -1.7370     1.8470     2.1980 hn         1 BN1       0.387500
     22 H5          -0.8440     0.7950    -1.3050 hc         1 BN1       0.068700
     23 H6          -2.1640    -0.3300    -1.3940 hc         1 BN1       0.068700
     24 H7          -2.2820    -3.6320     0.3180 ho         1 BN1       0.469000
     25 H8           5.5450     1.0780    -0.9390 h1         1 BN1       0.065367
     26 H9           5.1930     2.1580     0.4450 h1         1 BN1       0.065367
     27 H10          5.5160     0.4220     0.7260 h1         1 BN1       0.065367
@<TRIPOS>BOND
     1     1     2 1   
     2     2     3 1   
     3     2     4 1   
     4     4     5 1   
     5     4     6 1   
     6     4    19 1   
     7     5    20 1   
     8     5    21 1   
     9     6     7 1   
    10     6    22 1   
    11     6    23 1   
    12     7     8 2   
    13     7    11 1   
    14     8     9 1   
    15     8    13 1   
    16     9    10 1   
    17    10    11 2   
    18    11    12 1   
    19    12    24 1   
    20    13    14 2   
    21    13    17 1   
    22    14    15 1   
    23    15    16 1   
    24    15    18 1   
    25    16    17 2   
    26    18    25 1   
    27    18    26 1   
    28    18    27 1   
@<TRIPOS>SUBSTRUCTURE
     1 BN1         1 TEMP              0 ****  ****    0 ROOT
