@<TRIPOS>MOLECULE
BN2
   51    52     1     0     0
SMALL
No Charge or Current Charge


@<TRIPOS>ATOM
      1 C4          -1.6540     1.4080    -8.5040 ca         1 BN2      -0.115000
      2 C5          -1.1260     0.7100    -7.4050 ca         1 BN2      -0.082000
      3 C6           0.2220     0.2660    -7.4030 ca         1 BN2      -0.157600
      4 C1           1.0230     0.5440    -8.5430 ca         1 BN2       0.162000
      5 Cl1          2.7300     0.1040    -8.6480 cl         1 BN2      -0.167000
      6 C2           0.4820     1.2450    -9.6360 ca         1 BN2      -0.112000
      7 C3          -0.8520     1.6760    -9.6210 ca         1 BN2      -0.082000
      8 N1           0.1780    -0.1880    -5.0110 ns         1 BN2      -0.493500
      9 C7           0.7660    -0.4970    -6.2130 c          1 BN2       0.633700
     10 O1           1.6190    -1.3650    -6.3170 o          1 BN2      -0.490100
     11 N2          -0.4060    -0.1010    -2.8030 ns         1 BN2      -0.165000
     12 C9          -0.5440    -0.3090    -1.4010 ca         1 BN2      -0.013000
     13 C10          0.1350    -1.3240    -0.6890 ca         1 BN2      -0.132000
     14 C11         -0.0520    -1.4710     0.6960 ca         1 BN2       0.120000
     15 Cl2          0.8080    -2.7610     1.5390 cl         1 BN2      -0.169000
     16 C12         -0.9190    -0.6040     1.3930 ca         1 BN2       0.116100
     17 O3          -1.1080    -0.7450     2.7510 os         1 BN2      -0.348100
     18 C15         -0.1860    -0.1100     3.6480 c3         1 BN2       0.163600
     19 C16         -0.6330    -0.4360     5.0860 c3         1 BN2      -0.082400
     20 C17          0.2820     0.1940     6.1580 c3         1 BN2      -0.074400
     21 C18         -0.1650    -0.1310     7.6010 c3         1 BN2      -0.079400
     22 C19          0.7500     0.5000     8.6740 c3         1 BN2      -0.053400
     23 C20          0.3040     0.1760    10.1210 c3         1 BN2      -0.204400
     24 C21          1.2600     0.8360    11.1320 c          1 BN2       0.717000
     25 O5           1.0130     1.9750    11.5010 o          1 BN2      -0.743000
     26 O4           2.2480     0.2110    11.4860 o          1 BN2      -0.743000
     27 C13         -1.6050     0.4030     0.6850 ca         1 BN2       0.120000
     28 Cl3         -2.7050     1.5020     1.5180 cl         1 BN2      -0.169000
     29 C14         -1.4150     0.5460    -0.7000 ca         1 BN2      -0.132000
     30 C8           0.3870    -0.7130    -3.7630 c          1 BN2       0.664100
     31 O2           1.1820    -1.6120    -3.5350 o          1 BN2      -0.544100
     32 H4          -2.6920     1.7350    -8.4910 ha         1 BN2       0.123000
     33 H5          -1.7890     0.4980    -6.5690 ha         1 BN2       0.123000
     34 H2           1.1080     1.4600   -10.4990 ha         1 BN2       0.134000
     35 H3          -1.2620     2.2170   -10.4720 ha         1 BN2       0.121000
     36 HN1         -0.4990     0.5570    -5.0550 hn         1 BN2       0.316500
     37 HN2         -1.0030     0.6320    -3.1610 hn         1 BN2       0.149000
     38 H10          0.8070    -2.0140    -1.1870 ha         1 BN2       0.142000
     39 H151        -0.1880     0.9770     3.4980 h1         1 BN2       0.036200
     40 H152         0.8350    -0.4810     3.4850 h1         1 BN2       0.036200
     41 H161        -0.6470    -1.5250     5.2160 hc         1 BN2       0.051200
     42 H162        -1.6600    -0.0790     5.2290 hc         1 BN2       0.051200
     43 H171         0.2980     1.2830     6.0230 hc         1 BN2       0.036200
     44 H172         1.3090    -0.1620     6.0100 hc         1 BN2       0.036200
     45 H181        -0.1810    -1.2200     7.7350 hc         1 BN2       0.026700
     46 H182        -1.1920     0.2260     7.7480 hc         1 BN2       0.026700
     47 H191         0.7670     1.5890     8.5380 hc         1 BN2       0.038200
     48 H192         1.7770     0.1450     8.5250 hc         1 BN2       0.038200
     49 H201         0.3470    -0.9170    10.2110 hc         1 BN2       0.015200
     50 H202        -0.7070     0.5880    10.2230 hc         1 BN2       0.015200
     51 H14         -1.9500     1.3310    -1.2280 ha         1 BN2       0.142000
@<TRIPOS>BOND
     1     1     2 ar  
     2     1     7 ar  
     3     1    32 1   
     4     2     3 ar  
     5     2    33 1   
     6     3     4 ar  
     7     3     9 1   
     8     4     5 1   
     9     4     6 ar  
    10     6     7 ar  
    11     6    34 1   
    12     7    35 1   
    13     8     9 1   
    14     8    30 1   
    15     8    36 1   
    16     9    10 2   
    17    11    12 1   
    18    11    30 1   
    19    11    37 1   
    20    12    13 ar  
    21    12    29 ar  
    22    13    14 ar  
    23    13    38 1   
    24    14    15 1   
    25    14    16 ar  
    26    16    17 1   
    27    16    27 ar  
    28    17    18 1   
    29    18    19 1   
    30    18    39 1   
    31    18    40 1   
    32    19    20 1   
    33    19    41 1   
    34    19    42 1   
    35    20    21 1   
    36    20    43 1   
    37    20    44 1   
    38    21    22 1   
    39    21    45 1   
    40    21    46 1   
    41    22    23 1   
    42    22    47 1   
    43    22    48 1   
    44    23    24 1   
    45    23    49 1   
    46    23    50 1   
    47    24    25 1   
    48    24    26 1   
    49    27    28 1   
    50    27    29 ar  
    51    29    51 1   
    52    30    31 2   
@<TRIPOS>SUBSTRUCTURE
     1 BN2         1 TEMP              0 ****  ****    0 ROOT
