@<TRIPOS>MOLECULE
BN2
   51    52     1     0     0
SMALL
abcg2


@<TRIPOS>ATOM
      1 C4          -1.2880     0.1590    -8.8480 ca         1 BN2      -0.115000
      2 C5          -0.8370    -0.1660    -7.5780 ca         1 BN2      -0.082000
      3 C6           0.4470     0.1810    -7.1620 ca         1 BN2      -0.157600
      4 C1           1.2690     0.8760    -8.0480 ca         1 BN2       0.162000
      5 CL1          2.8550     1.3820    -7.5790 cl         1 BN2      -0.167000
      6 C2           0.8200     1.2220    -9.3120 ca         1 BN2      -0.112000
      7 C3          -0.4570     0.8550    -9.7120 ca         1 BN2      -0.082000
      8 N1           0.0500     0.0610    -4.8070 ns         1 BN2      -0.493500
      9 C7           0.9270    -0.2610    -5.8170 c          1 BN2       0.633700
     10 O1           1.9700    -0.8470    -5.6630 o          1 BN2      -0.490100
     11 N2          -0.8040     0.2380    -2.7000 ns         1 BN2      -0.165000
     12 C9          -0.9590     0.0690    -1.3220 ca         1 BN2      -0.013000
     13 C10         -0.5850    -1.0910    -0.6470 ca         1 BN2      -0.132000
     14 C11         -0.7980    -1.1710     0.7180 ca         1 BN2       0.120000
     15 CL2         -0.3450    -2.6130     1.5530 cl         1 BN2      -0.169000
     16 C12         -1.3960    -0.1490     1.4490 ca         1 BN2       0.116100
     17 O3          -1.6190    -0.2650     2.7700 os         1 BN2      -0.348100
     18 C15         -0.5320     0.1580     3.6080 c3         1 BN2       0.163600
     19 C16         -0.8570    -0.2070     5.0380 c3         1 BN2      -0.082400
     20 C17          0.2600     0.2090     5.9890 c3         1 BN2      -0.074400
     21 C18         -0.0390    -0.1430     7.4400 c3         1 BN2      -0.079400
     22 C19          1.0770     0.2560     8.3990 c3         1 BN2      -0.053400
     23 C20          0.7560    -0.0930     9.8420 c3         1 BN2      -0.204400
     24 C21          1.8220     0.2780    10.8880 c          1 BN2       0.717000
     25 O5           1.5140     0.0650    12.0800 o          1 BN2      -0.743000
     26 O4           2.9020     0.7500    10.4800 o          1 BN2      -0.743000
     27 C13         -1.7700     0.9910     0.7430 ca         1 BN2       0.120000
     28 CL3         -2.5280     2.2810     1.6000 cl         1 BN2      -0.169000
     29 C14         -1.5630     1.1080    -0.6180 ca         1 BN2      -0.132000
     30 C8           0.1500    -0.3480    -3.4800 c          1 BN2       0.664100
     31 O2           0.9750    -1.1350    -3.0810 o          1 BN2      -0.544100
     32 H4          -2.2820    -0.1320    -9.1560 ha         1 BN2       0.123000
     33 H5          -1.4840    -0.7170    -6.9070 ha         1 BN2       0.123000
     34 H2           1.4630     1.7780    -9.9800 ha         1 BN2       0.134000
     35 H3          -0.7970     1.1210   -10.7040 ha         1 BN2       0.121000
     36 HN1         -0.7250     0.6560    -5.0620 hn         1 BN2       0.316500
     37 HN2         -1.3570     0.9800    -3.1040 hn         1 BN2       0.149000
     38 H10         -0.1430    -1.9280    -1.1620 ha         1 BN2       0.142000
     39 H151        -0.3900     1.2390     3.5070 h1         1 BN2       0.036200
     40 H152         0.3930    -0.3310     3.2900 h1         1 BN2       0.036200
     41 H161        -1.0170    -1.2870     5.1090 hc         1 BN2       0.051200
     42 H162        -1.7930     0.2760     5.3370 hc         1 BN2       0.051200
     43 H171         0.4310     1.2880     5.9050 hc         1 BN2       0.036200
     44 H172         1.1960    -0.2710     5.6840 hc         1 BN2       0.036200
     45 H181        -0.2220    -1.2200     7.5210 hc         1 BN2       0.026700
     46 H182        -0.9730     0.3440     7.7450 hc         1 BN2       0.026700
     47 H191         1.2610     1.3310     8.3080 hc         1 BN2       0.038200
     48 H192         2.0060    -0.2330     8.0940 hc         1 BN2       0.038200
     49 H201         0.5640    -1.1700     9.9240 hc         1 BN2       0.015200
     50 H202        -0.1880     0.3810    10.1360 hc         1 BN2       0.015200
     51 H14         -1.8650     2.0120    -1.1310 ha         1 BN2       0.142000
@<TRIPOS>BOND
     1     1     2 ar  
     2     1     7 ar  
     3     1    32 1   
     4     2     3 ar  
     5     2    33 1   
     6     3     4 ar  
     7     3     9 1   
     8     4     5 1   
     9     4     6 ar  
    10     6     7 ar  
    11     6    34 1   
    12     7    35 1   
    13     8     9 1   
    14     8    30 1   
    15     8    36 1   
    16     9    10 2   
    17    11    12 1   
    18    11    30 1   
    19    11    37 1   
    20    12    13 ar  
    21    12    29 ar  
    22    13    14 ar  
    23    13    38 1   
    24    14    15 1   
    25    14    16 ar  
    26    16    17 1   
    27    16    27 ar  
    28    17    18 1   
    29    18    19 1   
    30    18    39 1   
    31    18    40 1   
    32    19    20 1   
    33    19    41 1   
    34    19    42 1   
    35    20    21 1   
    36    20    43 1   
    37    20    44 1   
    38    21    22 1   
    39    21    45 1   
    40    21    46 1   
    41    22    23 1   
    42    22    47 1   
    43    22    48 1   
    44    23    24 1   
    45    23    49 1   
    46    23    50 1   
    47    24    25 1   
    48    24    26 1   
    49    27    28 1   
    50    27    29 ar  
    51    29    51 1   
    52    30    31 2   
@<TRIPOS>SUBSTRUCTURE
     1 BN2         1 TEMP              0 ****  ****    0 ROOT
