@<TRIPOS>MOLECULE
BN3
   42    43     1     0     0
SMALL
abcg2


@<TRIPOS>ATOM
      1 C4          -0.8440     1.3920    -6.3660 ca         1 BN3      -0.111000
      2 C5          -0.2590     1.1190    -5.1410 ca         1 BN3      -0.073000
      3 C6           0.1990    -0.1560    -4.8230 ca         1 BN3      -0.154600
      4 C1           0.0460    -1.1690    -5.7660 ca         1 BN3       0.166000
      5 CL1          0.5440    -2.7850    -5.4210 cl         1 BN3      -0.158000
      6 C2          -0.5530    -0.9250    -6.9910 ca         1 BN3      -0.109000
      7 C3          -0.9850     0.3600    -7.2790 ca         1 BN3       0.139000
      8 N1           0.1800     0.0630    -2.4430 ns         1 BN3      -0.493500
      9 C7           0.9010    -0.3860    -3.5210 c          1 BN3       0.633700
     10 O1           1.9880    -0.9040    -3.4610 o          1 BN3      -0.495100
     11 N2          -0.3790     0.3910    -0.2530 ns         1 BN3      -0.168000
     12 C9          -0.1550     0.4660     1.1330 ca         1 BN3      -0.103000
     13 C10          0.6040     1.4950     1.6860 ca         1 BN3      -0.052000
     14 C11          0.8170     1.5770     3.0460 ca         1 BN3      -0.150000
     15 C12          0.2540     0.6290     3.9050 ca         1 BN3       0.186100
     16 O3           0.4980     0.7860     5.2130 os         1 BN3      -0.335100
     17 C15         -0.0730    -0.1310     6.1420 c3         1 BN3       0.150600
     18 C16          0.3440     0.2800     7.5380 c3         1 BN3      -0.058400
     19 C17         -0.2780    -0.6350     8.5800 c3         1 BN3      -0.209400
     20 C13         -0.5160    -0.4030     3.3740 ca         1 BN3      -0.198000
     21 C14         -0.6950    -0.4750     2.0000 ca         1 BN3       0.151000
     22 C8           0.6250     0.1060    -1.1210 c          1 BN3       0.661100
     23 O2           1.7760    -0.0670    -0.7950 o          1 BN3      -0.549100
     24 CL2         -1.7200     0.6710    -8.8090 cl         1 BN3      -0.189000
     25 CL3         -1.6260    -1.7820     1.3560 cl         1 BN3      -0.216000
     26 C18          0.0760    -0.3050    10.0430 c          1 BN3       0.720000
     27 O4          -0.3450    -1.1120    10.8980 o          1 BN3      -0.735000
     28 O5           0.7350     0.7300    10.2610 o          1 BN3      -0.735000
     29 H4          -1.1810     2.3910    -6.6000 ha         1 BN3       0.136000
     30 H5          -0.1420     1.9260    -4.4290 ha         1 BN3       0.130000
     31 H2          -0.6820    -1.7250    -7.7060 ha         1 BN3       0.147000
     32 HN1         -0.7700     0.3540    -2.6280 hn         1 BN3       0.314500
     33 HN2         -1.3360     0.3800    -0.5750 hn         1 BN3       0.152000
     34 H10          1.0260     2.2480     1.0340 ha         1 BN3       0.121000
     35 H11          1.4090     2.3850     3.4560 ha         1 BN3       0.137000
     36 H151         0.2700    -1.1490     5.9230 h1         1 BN3       0.027700
     37 H152        -1.1650    -0.1220     6.0510 h1         1 BN3       0.027700
     38 H161         0.0370     1.3120     7.7190 hc         1 BN3       0.058200
     39 H162         1.4330     0.2530     7.6150 hc         1 BN3       0.058200
     40 H171         0.0020    -1.6760     8.3850 hc         1 BN3       0.017700
     41 H172        -1.3700    -0.6120     8.4850 hc         1 BN3       0.017700
     42 H13         -0.9680    -1.1580     4.0010 ha         1 BN3       0.143000
@<TRIPOS>BOND
     1     1     2 ar  
     2     1     7 ar  
     3     1    29 1   
     4     2     3 ar  
     5     2    30 1   
     6     3     4 ar  
     7     3     9 1   
     8     4     5 1   
     9     4     6 ar  
    10     6     7 ar  
    11     6    31 1   
    12     7    24 1   
    13     8     9 1   
    14     8    22 1   
    15     8    32 1   
    16     9    10 2   
    17    11    12 1   
    18    11    22 1   
    19    11    33 1   
    20    12    13 ar  
    21    12    21 ar  
    22    13    14 ar  
    23    13    34 1   
    24    14    15 ar  
    25    14    35 1   
    26    15    16 1   
    27    15    20 ar  
    28    16    17 1   
    29    17    18 1   
    30    17    36 1   
    31    17    37 1   
    32    18    19 1   
    33    18    38 1   
    34    18    39 1   
    35    19    26 1   
    36    19    40 1   
    37    19    41 1   
    38    20    21 ar  
    39    20    42 1   
    40    21    25 1   
    41    22    23 2   
    42    26    27 1   
    43    26    28 1   
@<TRIPOS>SUBSTRUCTURE
     1 BN3         1 TEMP              0 ****  ****    0 ROOT
