@<TRIPOS>MOLECULE
BN3
   42    43     1     0     0
SMALL
No Charge or Current Charge


@<TRIPOS>ATOM
      1 C4          -2.0710     0.5180    -5.8200 ca         1 BN3      -0.111000
      2 C5          -1.1320     0.5900    -4.7780 ca         1 BN3      -0.073000
      3 C6           0.1980     0.1280    -4.9650 ca         1 BN3      -0.154600
      4 C1           0.5520    -0.4060    -6.2330 ca         1 BN3       0.166000
      5 Cl1          2.1510    -1.0710    -6.5800 cl         1 BN3      -0.158000
      6 C2          -0.3980    -0.4740    -7.2660 ca         1 BN3      -0.109000
      7 C3          -1.7040    -0.0130    -7.0620 ca         1 BN3       0.139000
      8 N1           0.6580     0.1570    -2.5730 ns         1 BN3      -0.493500
      9 C7           1.2000     0.2290    -3.8330 c          1 BN3       0.633700
     10 O1           2.3910     0.4200    -4.0210 o          1 BN3      -0.495100
     11 N2           0.3440     0.1100    -0.3120 ns         1 BN3      -0.168000
     12 C9           0.4800     0.1350     1.1100 ca         1 BN3      -0.103000
     13 C10          1.7190     0.3130     1.7650 ca         1 BN3      -0.052000
     14 C11          1.7820     0.3270     3.1690 ca         1 BN3      -0.150000
     15 C12          0.6230     0.1630     3.9410 ca         1 BN3       0.186100
     16 O3           0.7520     0.1860     5.3140 os         1 BN3      -0.335100
     17 C15         -0.3740     0.0280     6.1920 c3         1 BN3       0.150600
     18 C16          0.1450     0.1070     7.6410 c3         1 BN3      -0.058400
     19 C17         -0.9750    -0.0500     8.7000 c3         1 BN3      -0.209400
     20 C13         -0.6160    -0.0160     3.2970 ca         1 BN3      -0.198000
     21 C14         -0.6830    -0.0300     1.8950 ca         1 BN3       0.151000
     22 C8           1.2570     0.2620    -1.3460 c          1 BN3       0.661100
     23 O2           2.4510     0.4670    -1.1930 o          1 BN3      -0.549100
     24 Cl2         -2.8830    -0.1030    -8.3640 cl         1 BN3      -0.189000
     25 Cl3         -2.2550    -0.2580     1.1300 cl         1 BN3      -0.216000
     26 C18         -0.3800     0.0400    10.1160 c          1 BN3       0.720000
     27 O4           0.0210    -0.9890    10.6380 o          1 BN3      -0.735000
     28 O5          -0.2850     1.1440    10.6310 o          1 BN3      -0.735000
     29 H4          -3.0850     0.8810    -5.6660 ha         1 BN3       0.136000
     30 H5          -1.4460     1.0350    -3.8350 ha         1 BN3       0.130000
     31 H2          -0.1200    -0.8930    -8.2290 ha         1 BN3       0.147000
     32 HN1         -0.3320    -0.0240    -2.5520 hn         1 BN3       0.314500
     33 HN2         -0.6070    -0.0490    -0.6180 hn         1 BN3       0.152000
     34 H10          2.6440     0.4420     1.2120 ha         1 BN3       0.121000
     35 H11          2.7390     0.4650     3.6650 ha         1 BN3       0.137000
     36 H151        -0.8590    -0.9440     6.0290 h1         1 BN3       0.027700
     37 H152        -1.1120     0.8230     6.0230 h1         1 BN3       0.027700
     38 H161         0.6490     1.0710     7.7860 hc         1 BN3       0.058200
     39 H162         0.8990    -0.6760     7.7920 hc         1 BN3       0.058200
     40 H171        -1.4130    -1.0410     8.5290 hc         1 BN3       0.017700
     41 H172        -1.6730     0.7780     8.5230 hc         1 BN3       0.017700
     42 H13         -1.5330    -0.1460     3.8620 ha         1 BN3       0.143000
@<TRIPOS>BOND
     1     1     2 ar  
     2     1     7 ar  
     3     1    29 1   
     4     2     3 ar  
     5     2    30 1   
     6     3     4 ar  
     7     3     9 1   
     8     4     5 1   
     9     4     6 ar  
    10     6     7 ar  
    11     6    31 1   
    12     7    24 1   
    13     8     9 1   
    14     8    22 1   
    15     8    32 1   
    16     9    10 2   
    17    11    12 1   
    18    11    22 1   
    19    11    33 1   
    20    12    13 ar  
    21    12    21 ar  
    22    13    14 ar  
    23    13    34 1   
    24    14    15 ar  
    25    14    35 1   
    26    15    16 1   
    27    15    20 ar  
    28    16    17 1   
    29    17    18 1   
    30    17    36 1   
    31    17    37 1   
    32    18    19 1   
    33    18    38 1   
    34    18    39 1   
    35    19    26 1   
    36    19    40 1   
    37    19    41 1   
    38    20    21 ar  
    39    20    42 1   
    40    21    25 1   
    41    22    23 2   
    42    26    27 1   
    43    26    28 1   
@<TRIPOS>SUBSTRUCTURE
     1 BN3         1 TEMP              0 ****  ****    0 ROOT
