@<TRIPOS>MOLECULE
BN4
   48    49     1     0     0
SMALL
bcc


@<TRIPOS>ATOM
      1 C4           0.1520    -1.7790    -6.2770 ca         1 BN4      -0.129000
      2 C5          -0.1090    -1.2110    -5.0420 ca         1 BN4      -0.091000
      3 C6          -0.0150     0.1630    -4.8390 ca         1 BN4      -0.155600
      4 C1           0.3600     0.9660    -5.9130 ca         1 BN4       0.073400
      5 CL1          0.5450     2.6710    -5.7220 cl         1 BN4      -0.068400
      6 C2           0.6440     0.4190    -7.1540 ca         1 BN4      -0.128000
      7 C3           0.5280    -0.9520    -7.3230 ca         1 BN4       0.046400
      8 N1           0.2820     0.1470    -2.4700 ns         1 BN4      -0.628500
      9 C7          -0.3870     0.7400    -3.5080 c          1 BN4       0.699700
     10 O1          -1.2030     1.6220    -3.4010 o          1 BN4      -0.496100
     11 N2           0.9780    -0.2430    -0.3280 ns         1 BN4      -0.500100
     12 C9           0.9350    -0.1740     1.0850 ca         1 BN4      -0.010400
     13 C10         -0.1060    -0.7850     1.7640 ca         1 BN4      -0.076000
     14 C11         -0.1730    -0.7360     3.1450 ca         1 BN4      -0.216000
     15 C12          0.8300    -0.0870     3.8620 ca         1 BN4       0.178100
     16 O3           0.8310     0.0090     5.2050 os         1 BN4      -0.319900
     17 C15         -0.2470    -0.5410     5.9460 c3         1 BN4       0.129400
     18 C16         -0.0310    -0.2260     7.4110 c3         1 BN4      -0.059400
     19 C17         -1.1570    -0.7900     8.2630 c3         1 BN4      -0.208400
     20 C13          1.9080     0.5090     3.1910 ca         1 BN4      -0.111300
     21 C14          1.9440     0.4880     1.7930 ca         1 BN4      -0.051300
     22 C8           0.0550     0.3700    -1.1080 c          1 BN4       0.791100
     23 O2          -0.8710     1.0250    -0.6860 o          1 BN4      -0.550100
     24 CL2          0.8680    -1.6340    -8.8700 cl         1 BN4      -0.096400
     25 C19          3.0680     1.1720     1.0690 c3         1 BN4      -0.045800
     26 C18         -1.0580    -0.4920     9.7690 c          1 BN4       0.930600
     27 O4          -1.8730    -1.0970    10.4970 o          1 BN4      -0.842300
     28 O5          -0.1990     0.3270    10.1450 o          1 BN4      -0.842300
     29 C20          3.0090     1.1870     3.9580 c3         1 BN4      -0.036800
     30 H4           0.0620    -2.8460    -6.4180 ha         1 BN4       0.154000
     31 H5          -0.4100    -1.8550    -4.2260 ha         1 BN4       0.148000
     32 H2           0.9500     1.0540    -7.9740 ha         1 BN4       0.164000
     33 HN1          1.0290    -0.4840    -2.7220 hn         1 BN4       0.311500
     34 HN2          1.7720    -0.6950    -0.7560 hn         1 BN4       0.310500
     35 H10         -0.8750    -1.3100     1.2130 ha         1 BN4       0.133000
     36 H11         -1.0050    -1.2120     3.6440 ha         1 BN4       0.147000
     37 H151        -1.1980    -0.1140     5.6050 h1         1 BN4       0.025200
     38 H152        -0.3020    -1.6260     5.7920 h1         1 BN4       0.025200
     39 H161         0.9270    -0.6420     7.7350 hc         1 BN4       0.056200
     40 H162         0.0330     0.8560     7.5440 hc         1 BN4       0.056200
     41 H171        -2.1180    -0.3970     7.9080 hc         1 BN4       0.017200
     42 H172        -1.2260    -1.8740     8.1260 hc         1 BN4       0.017200
     43 H191         3.9760     0.5640     1.0790 hc         1 BN4       0.038700
     44 H192         2.8210     1.3720     0.0290 hc         1 BN4       0.038700
     45 H193         3.3200     2.1240     1.5360 hc         1 BN4       0.038700
     46 H201         2.9670     2.2720     3.8370 hc         1 BN4       0.043700
     47 H202         2.9610     0.9780     5.0230 hc         1 BN4       0.043700
     48 H203         3.9900     0.8690     3.6040 hc         1 BN4       0.043700
@<TRIPOS>BOND
     1     1     2 ar  
     2     1     7 ar  
     3     1    30 1   
     4     2     3 ar  
     5     2    31 1   
     6     3     4 ar  
     7     3     9 1   
     8     4     5 1   
     9     4     6 ar  
    10     6     7 ar  
    11     6    32 1   
    12     7    24 1   
    13     8     9 1   
    14     8    22 1   
    15     8    33 1   
    16     9    10 2   
    17    11    12 1   
    18    11    22 1   
    19    11    34 1   
    20    12    13 ar  
    21    12    21 ar  
    22    13    14 ar  
    23    13    35 1   
    24    14    15 ar  
    25    14    36 1   
    26    15    16 1   
    27    15    20 ar  
    28    16    17 1   
    29    17    18 1   
    30    17    37 1   
    31    17    38 1   
    32    18    19 1   
    33    18    39 1   
    34    18    40 1   
    35    19    26 1   
    36    19    41 1   
    37    19    42 1   
    38    20    21 ar  
    39    20    29 1   
    40    21    25 1   
    41    22    23 2   
    42    25    43 1   
    43    25    44 1   
    44    25    45 1   
    45    26    27 1   
    46    26    28 1   
    47    29    46 1   
    48    29    47 1   
    49    29    48 1   
@<TRIPOS>SUBSTRUCTURE
     1 BN4         1 TEMP              0 ****  ****    0 ROOT
