@<TRIPOS>MOLECULE
BN4
   48    49     1     0     0
SMALL
No Charge or Current Charge


@<TRIPOS>ATOM
      1 C4           1.6960    -1.2100    -6.1170 ca         1 BN4      -0.111000
      2 C5           0.9690    -0.8850    -4.9590 ca         1 BN4      -0.073000
      3 C6          -0.0440     0.1090    -4.9930 ca         1 BN4      -0.155600
      4 C1          -0.3040     0.7630    -6.2280 ca         1 BN4       0.165000
      5 Cl1         -1.4920     2.0590    -6.3940 cl         1 BN4      -0.160000
      6 C2           0.4320     0.4300    -7.3770 ca         1 BN4      -0.110000
      7 C3           1.4270    -0.5530    -7.3230 ca         1 BN4       0.138000
      8 N1          -0.1410     0.2440    -2.5640 ns         1 BN4      -0.494500
      9 C7          -0.8270     0.4340    -3.7380 c          1 BN4       0.632700
     10 O1          -1.9980     0.7800    -3.7610 o          1 BN4      -0.496100
     11 N2           0.4720     0.1240    -0.3660 ns         1 BN4      -0.174000
     12 C9           0.5130     0.0940     1.0610 ca         1 BN4      -0.103000
     13 C10         -0.6680    -0.0110     1.8230 ca         1 BN4      -0.058000
     14 C11         -0.6130    -0.0630     3.2210 ca         1 BN4      -0.198000
     15 C12          0.6260    -0.0310     3.8890 ca         1 BN4       0.178100
     16 O3           0.6990    -0.0820     5.2700 os         1 BN4      -0.343100
     17 C15         -0.4660    -0.1660     6.1070 c3         1 BN4       0.152600
     18 C16          0.0120    -0.2000     7.5720 c3         1 BN4      -0.059400
     19 C17         -1.1510    -0.2920     8.5910 c3         1 BN4      -0.208400
     20 C13          1.8260     0.0520     3.1410 ca         1 BN4      -0.111300
     21 C14          1.7700     0.1330     1.7210 ca         1 BN4      -0.051300
     22 C8          -0.5530     0.3890    -1.2650 c          1 BN4       0.657100
     23 O2          -1.6840     0.7260    -0.9490 o          1 BN4      -0.550100
     24 Cl2          2.3400    -0.9620    -8.7700 cl         1 BN4      -0.188000
     25 C19          3.0650     0.2580     0.9020 c3         1 BN4      -0.045800
     26 C18         -0.5960    -0.3210    10.0260 c          1 BN4       0.720000
     27 O4          -0.3150    -1.4060    10.5120 o          1 BN4      -0.737000
     28 O5          -0.4110     0.7440    10.5940 o          1 BN4      -0.737000
     29 C20          3.1790     0.0550     3.8680 c3         1 BN4      -0.036800
     30 H4           2.4660    -1.9780    -6.0790 ha         1 BN4       0.136000
     31 H5           1.1860    -1.4360    -4.0470 ha         1 BN4       0.130000
     32 H2           0.2330     0.9430    -8.3140 ha         1 BN4       0.146000
     33 HN1          0.8230    -0.0240    -2.6790 hn         1 BN4       0.311500
     34 HN2          1.3580    -0.1000    -0.7980 hn         1 BN4       0.144000
     35 H10         -1.6420    -0.0700     1.3490 ha         1 BN4       0.115000
     36 H11         -1.5480    -0.1380     3.7680 ha         1 BN4       0.129000
     37 H151        -1.1170     0.7050     5.9540 h1         1 BN4       0.025200
     38 H152        -1.0360    -1.0780     5.8870 h1         1 BN4       0.025200
     39 H161         0.6820    -1.0590     7.7080 hc         1 BN4       0.056200
     40 H162         0.6020     0.7020     7.7750 hc         1 BN4       0.056200
     41 H171        -1.7600     0.6070     8.4330 hc         1 BN4       0.017200
     42 H172        -1.6770    -1.2270     8.3630 hc         1 BN4       0.017200
     43 H191         3.4950    -0.7310     0.7010 hc         1 BN4       0.038700
     44 H192         2.9140     0.7580    -0.0610 hc         1 BN4       0.038700
     45 H193         3.8250     0.8540     1.4210 hc         1 BN4       0.038700
     46 H201         3.6040     1.0650     3.8960 hc         1 BN4       0.043700
     47 H202         3.1110    -0.2990     4.9020 hc         1 BN4       0.043700
     48 H203         3.9020    -0.6020     3.3710 hc         1 BN4       0.043700
@<TRIPOS>BOND
     1     1     2 ar  
     2     1     7 ar  
     3     1    30 1   
     4     2     3 ar  
     5     2    31 1   
     6     3     4 ar  
     7     3     9 1   
     8     4     5 1   
     9     4     6 ar  
    10     6     7 ar  
    11     6    32 1   
    12     7    24 1   
    13     8     9 1   
    14     8    22 1   
    15     8    33 1   
    16     9    10 2   
    17    11    12 1   
    18    11    22 1   
    19    11    34 1   
    20    12    13 ar  
    21    12    21 ar  
    22    13    14 ar  
    23    13    35 1   
    24    14    15 ar  
    25    14    36 1   
    26    15    16 1   
    27    15    20 ar  
    28    16    17 1   
    29    17    18 1   
    30    17    37 1   
    31    17    38 1   
    32    18    19 1   
    33    18    39 1   
    34    18    40 1   
    35    19    26 1   
    36    19    41 1   
    37    19    42 1   
    38    20    21 ar  
    39    20    29 1   
    40    21    25 1   
    41    22    23 2   
    42    25    43 1   
    43    25    44 1   
    44    25    45 1   
    45    26    27 1   
    46    26    28 1   
    47    29    46 1   
    48    29    47 1   
    49    29    48 1   
@<TRIPOS>SUBSTRUCTURE
     1 BN4         1 TEMP              0 ****  ****    0 ROOT
