@<TRIPOS>MOLECULE
BN5
   48    49     1     0     0
SMALL
bcc


@<TRIPOS>ATOM
      1 C4           2.5990     0.5550     5.5850 ca         1 BN5      -0.128000
      2 C5           1.6100     0.6570     4.6230 ca         1 BN5      -0.092000
      3 C6           0.3030     0.2500     4.8770 ca         1 BN5      -0.155600
      4 C1           0.0080    -0.2780     6.1310 ca         1 BN5       0.074400
      5 CL1         -1.5790    -0.8460     6.5030 cl         1 BN5      -0.067400
      6 C2           0.9850    -0.4070     7.1040 ca         1 BN5      -0.127000
      7 C3           2.2720     0.0210     6.8210 ca         1 BN5       0.048400
      8 N1          -0.3940    -0.0690     2.6160 ns         1 BN5      -0.627500
      9 C7          -0.7520     0.4510     3.8340 c          1 BN5       0.700700
     10 O1          -1.7840     1.0290     4.0690 o          1 BN5      -0.496100
     11 N2          -0.4530    -0.5200     0.3810 ns         1 BN5      -0.502100
     12 C9          -0.9670    -0.5990    -0.9300 ca         1 BN5       0.088600
     13 C10         -2.2320    -1.1410    -1.1520 ca         1 BN5      -0.170000
     14 C11         -2.6940    -1.2570    -2.4480 ca         1 BN5      -0.079000
     15 C12         -1.9070    -0.8670    -3.5240 ca         1 BN5      -0.224000
     16 C16         -0.1830    -0.1400    -5.6320 c3         1 BN5       0.136400
     17 C17          0.9750     0.2930    -6.5070 c3         1 BN5      -0.087400
     18 C18          0.6860     0.0650    -7.9860 c3         1 BN5      -0.052400
     19 C19          1.8610     0.4640    -8.8630 c3         1 BN5      -0.205400
     20 C20          1.6830     0.2430   -10.3750 c          1 BN5       0.928600
     21 O5           2.6870     0.4810   -11.0810 o          1 BN5      -0.845800
     22 O4           0.5710    -0.1430   -10.7830 o          1 BN5      -0.845800
     23 C13         -0.6390    -0.3410    -3.2940 ca         1 BN5       0.179100
     24 C14         -0.1600    -0.1720    -1.9830 ca         1 BN5      -0.145300
     25 C8          -1.1200     0.0350     1.4270 c          1 BN5       0.796100
     26 O2          -2.2080     0.5560     1.3510 o          1 BN5      -0.550100
     27 CL2          3.4890    -0.1260     8.0360 cl         1 BN5      -0.094400
     28 H4           3.6050     0.8870     5.3720 ha         1 BN5       0.156000
     29 H5           1.8640     1.0810     3.6600 ha         1 BN5       0.147000
     30 H2           0.7440    -0.8350     8.0670 ha         1 BN5       0.165000
     31 HN1          0.4620    -0.6050     2.5960 hn         1 BN5       0.314500
     32 HN2          0.5100    -0.7910     0.5080 hn         1 BN5       0.316500
     33 H10         -2.8360    -1.4850    -0.3240 ha         1 BN5       0.143000
     34 H11         -3.6730    -1.6760    -2.6350 ha         1 BN5       0.130000
     35 H151         1.9580    -0.3330    -1.5840 hc         1 BN5       0.040700
     36 H152         1.5160     1.0600    -2.5540 hc         1 BN5       0.040700
     37 H153         1.1790     1.0520    -0.8300 hc         1 BN5       0.040700
     38 H12         -2.2900    -0.9900    -4.5270 ha         1 BN5       0.146000
     39 H161        -0.4240    -1.1930    -5.8190 h1         1 BN5       0.034200
     40 H162        -1.0790     0.4490    -5.8620 h1         1 BN5       0.034200
     41 H171         1.1930     1.3510    -6.3300 hc         1 BN5       0.041700
     42 H172         1.8690    -0.2660    -6.2160 hc         1 BN5       0.041700
     43 H181         0.4440    -0.9900    -8.1480 hc         1 BN5       0.040700
     44 H182        -0.2050     0.6270    -8.2800 hc         1 BN5       0.040700
     45 H191         2.0940     1.5240    -8.7010 hc         1 BN5       0.017200
     46 H192         2.7600    -0.0730    -8.5400 hc         1 BN5       0.017200
     47 C15          1.1910     0.4330    -1.7280 c3         1 BN5      -0.033800
     48 O3           0.1970     0.0420    -4.2760 os         1 BN5      -0.329900
@<TRIPOS>BOND
     1     1     2 ar  
     2     1     7 ar  
     3     1    28 1   
     4     2     3 ar  
     5     2    29 1   
     6     3     4 ar  
     7     3     9 1   
     8     4     5 1   
     9     4     6 ar  
    10     6     7 ar  
    11     6    30 1   
    12     7    27 1   
    13     8     9 1   
    14     8    25 1   
    15     8    31 1   
    16     9    10 2   
    17    11    12 1   
    18    11    25 1   
    19    11    32 1   
    20    12    13 ar  
    21    12    24 ar  
    22    13    14 ar  
    23    13    33 1   
    24    14    15 ar  
    25    14    34 1   
    26    15    23 ar  
    27    15    38 1   
    28    16    17 1   
    29    16    39 1   
    30    16    40 1   
    31    16    48 1   
    32    17    18 1   
    33    17    41 1   
    34    17    42 1   
    35    18    19 1   
    36    18    43 1   
    37    18    44 1   
    38    19    20 1   
    39    19    45 1   
    40    19    46 1   
    41    20    21 1   
    42    20    22 1   
    43    23    24 ar  
    44    23    48 1   
    45    24    47 1   
    46    25    26 2   
    47    35    47 1   
    48    36    47 1   
    49    37    47 1   
@<TRIPOS>SUBSTRUCTURE
     1 BN5         1 TEMP              0 ****  ****    0 ROOT
