@<TRIPOS>MOLECULE
BN5
   48    49     1     0     0
SMALL
No Charge or Current Charge


@<TRIPOS>ATOM
      1 C4           2.5620     0.9220     5.2850 ca         1 BN5      -0.110000
      2 C5           1.4340     0.7350     4.4680 ca         1 BN5      -0.074000
      3 C6           0.2930     0.0430     4.9520 ca         1 BN5      -0.155600
      4 C1           0.3220    -0.4530     6.2840 ca         1 BN5       0.166000
      5 Cl1         -1.0030    -1.3830     6.9880 cl         1 BN5      -0.159000
      6 C2           1.4570    -0.2600     7.0890 ca         1 BN5      -0.109000
      7 C3           2.5720     0.4250     6.5940 ca         1 BN5       0.140000
      8 N1          -0.6430    -0.1990     2.7170 ns         1 BN5      -0.493500
      9 C7          -0.9180    -0.1350     4.0610 c          1 BN5       0.633700
     10 O1          -2.0600    -0.1590     4.4950 o          1 BN5      -0.496100
     11 N2          -0.7970    -0.3510     0.4440 ns         1 BN5      -0.176000
     12 C9          -1.2320    -0.4970    -0.9050 ca         1 BN5      -0.004000
     13 C10         -2.5300    -0.9460    -1.2280 ca         1 BN5      -0.152000
     14 C11         -2.9250    -1.0930    -2.5640 ca         1 BN5      -0.061000
     15 C12         -2.0270    -0.8010    -3.5980 ca         1 BN5      -0.206000
     16 C16         -0.1330    -0.2040    -5.7000 c3         1 BN5       0.159600
     17 C17          1.1180     0.1980    -6.5050 c3         1 BN5      -0.087400
     18 C18          0.9070     0.1040    -8.0330 c3         1 BN5      -0.052400
     19 C19          2.1600     0.5070    -8.8480 c3         1 BN5      -0.205400
     20 C20          1.8760     0.3890   -10.3560 c          1 BN5       0.718000
     21 O5           2.0850    -0.6850   -10.8990 o          1 BN5      -0.740500
     22 O4           1.4070     1.3580   -10.9320 o          1 BN5      -0.740500
     23 C13         -0.7190    -0.3610    -3.3010 ca         1 BN5       0.179100
     24 C14         -0.3170    -0.2080    -1.9500 ca         1 BN5      -0.145300
     25 C8          -1.4890    -0.3040     1.6450 c          1 BN5       0.662100
     26 O2          -2.7060    -0.3350     1.7470 o          1 BN5      -0.550100
     27 Cl2          3.9860     0.6600     7.6140 cl         1 BN5      -0.186000
     28 H4           3.4270     1.4600     4.9040 ha         1 BN5       0.138000
     29 H5           1.4520     1.1600     3.4670 ha         1 BN5       0.129000
     30 H2           1.4730    -0.6520     8.1030 ha         1 BN5       0.147000
     31 HN1          0.3380    -0.1910     2.4890 hn         1 BN5       0.314500
     32 HN2          0.2060    -0.2730     0.5360 hn         1 BN5       0.150000
     33 H10         -3.2470    -1.2020    -0.4550 ha         1 BN5       0.125000
     34 H11         -3.9290    -1.4410    -2.7980 ha         1 BN5       0.112000
     35 H151         1.6680    -0.5210    -1.1010 hc         1 BN5       0.040700
     36 H152         1.6830     0.5740    -2.4820 hc         1 BN5       0.040700
     37 H153         1.0710     1.1400    -0.9360 hc         1 BN5       0.040700
     38 H12         -2.3630    -0.9280    -4.6230 ha         1 BN5       0.128000
     39 H161        -0.4060    -1.2400    -5.9420 h1         1 BN5       0.034200
     40 H162        -0.9690     0.4550    -5.9690 h1         1 BN5       0.034200
     41 H171         1.3980     1.2260    -6.2410 hc         1 BN5       0.041700
     42 H172         1.9540    -0.4500    -6.2150 hc         1 BN5       0.041700
     43 H181         0.6220    -0.9230    -8.2940 hc         1 BN5       0.040700
     44 H182         0.0670     0.7500    -8.3200 hc         1 BN5       0.040700
     45 H191         2.3710     1.5500    -8.5780 hc         1 BN5       0.017200
     46 H192         2.9500    -0.1940    -8.5500 hc         1 BN5       0.017200
     47 C15          1.1010     0.2710    -1.6050 c3         1 BN5      -0.033800
     48 O3           0.1880    -0.0760    -4.3050 os         1 BN5      -0.353100
@<TRIPOS>BOND
     1     1     2 ar  
     2     1     7 ar  
     3     1    28 1   
     4     2     3 ar  
     5     2    29 1   
     6     3     4 ar  
     7     3     9 1   
     8     4     5 1   
     9     4     6 ar  
    10     6     7 ar  
    11     6    30 1   
    12     7    27 1   
    13     8     9 1   
    14     8    25 1   
    15     8    31 1   
    16     9    10 2   
    17    11    12 1   
    18    11    25 1   
    19    11    32 1   
    20    12    13 ar  
    21    12    24 ar  
    22    13    14 ar  
    23    13    33 1   
    24    14    15 ar  
    25    14    34 1   
    26    15    23 ar  
    27    15    38 1   
    28    16    17 1   
    29    16    39 1   
    30    16    40 1   
    31    16    48 1   
    32    17    18 1   
    33    17    41 1   
    34    17    42 1   
    35    18    19 1   
    36    18    43 1   
    37    18    44 1   
    38    19    20 1   
    39    19    45 1   
    40    19    46 1   
    41    20    21 1   
    42    20    22 1   
    43    23    24 ar  
    44    23    48 1   
    45    24    47 1   
    46    25    26 2   
    47    35    47 1   
    48    36    47 1   
    49    37    47 1   
@<TRIPOS>SUBSTRUCTURE
     1 BN5         1 TEMP              0 ****  ****    0 ROOT
