@<TRIPOS>MOLECULE
BN6
  101   104     1     0     0
SMALL
No Charge or Current Charge


@<TRIPOS>ATOM
      1 C1           5.0540    -2.3610    -4.0000 c          1 BN6       0.646100
      2 O2           5.7280    -2.6450    -4.9790 o          1 BN6      -0.571000
      3 O3           4.8920    -1.1170    -3.4800 os         1 BN6      -0.461100
      4 C4           5.5820    -0.0340    -4.1280 c3         1 BN6       0.181600
      5 C5           5.2420     1.2790    -3.3810 c3         1 BN6      -0.067700
      6 C6           5.7280     1.2650    -1.9110 c3         1 BN6      -0.086600
      7 C7           5.7970     2.5080    -4.1370 c3         1 BN6      -0.086600
      8 N8           4.2850    -3.2470    -3.3030 ns         1 BN6      -0.483900
      9 C9           4.1650    -4.6740    -3.6560 c3         1 BN6       0.052700
     10 C10          3.4570    -5.5010    -2.5330 c6         1 BN6      -0.064700
     11 C11          3.2150    -6.9770    -2.9630 c6         1 BN6      -0.074900
     12 C12          4.2660    -5.4590    -1.2000 c6         1 BN6      -0.074900
     13 C13          2.5360    -7.8010    -1.8430 c6         1 BN6      -0.072400
     14 C14          3.5840    -6.2890    -0.0850 c6         1 BN6      -0.072400
     15 C15          3.3550    -7.7510    -0.5340 c6         1 BN6      -0.076400
     16 C16          3.4970    -4.7750    -5.0560 c          1 BN6       0.569100
     17 O17          2.3870    -4.3150    -5.3070 o          1 BN6      -0.592100
     18 N18          4.3030    -5.3690    -6.0120 ns         1 BN6      -0.351500
     19 C20          4.5650    -4.5940    -8.3250 c          1 BN6       0.694100
     20 O21          4.4980    -4.7680    -9.5330 o          1 BN6      -0.640100
     21 C22          3.0040    -6.5050    -7.8820 c3         1 BN6       0.158000
     22 C23          2.6710    -7.5730    -6.8410 cx         1 BN6      -0.166700
     23 C24          2.5600    -9.0310    -7.2290 cx         1 BN6      -0.120900
     24 C25          3.7180    -8.5620    -6.3800 cx         1 BN6      -0.120900
     25 N26          5.3700    -3.6260    -7.7660 ns         1 BN6      -0.517900
     26 C27          6.2830    -2.7430    -8.5070 c3         1 BN6       0.102700
     27 C28          5.6220    -1.3630    -8.7820 c3         1 BN6      -0.058400
     28 C29          4.3400    -1.4320    -9.6100 cx         1 BN6      -0.118700
     29 C30          3.3550    -0.2870    -9.6050 cx         1 BN6      -0.131900
     30 C31          2.9900    -1.6000    -8.9500 cx         1 BN6      -0.131900
     31 O32          7.6060    -1.7420    -6.6600 oh         1 BN6      -0.667000
     32 C33          7.6880    -2.6230    -7.8150 c3         1 BN6       0.088300
     33 C37          7.7680    -6.9780    -6.2040 c          1 BN6       0.584100
     34 N40          8.3530    -8.1280    -5.7260 ns         1 BN6      -0.468900
     35 C41          8.0890    -8.7390    -4.3990 c3         1 BN6      -0.015000
     36 C42          6.8740    -9.6660    -4.3960 ca         1 BN6      -0.023300
     37 C43          6.6320   -10.5570    -5.4630 ca         1 BN6      -0.095000
     38 C44          5.9980    -9.6640    -3.2920 ca         1 BN6      -0.095000
     39 C45          5.5270   -11.4250    -5.4270 ca         1 BN6      -0.122500
     40 C46          4.8960   -10.5350    -3.2550 ca         1 BN6      -0.122500
     41 C47          4.6590   -11.4150    -4.3230 ca         1 BN6      -0.141000
     42 C48          9.3520    -9.4890    -3.8750 c          1 BN6       0.726000
     43 O49         10.0450   -10.1000    -4.6800 o          1 BN6      -0.710000
     44 O50          9.6160    -9.4140    -2.6830 o          1 BN6      -0.710000
     45 N19          3.8540    -5.3880    -7.3980 n          1 BN6      -0.286400
     46 C36          8.3010    -6.5130    -7.5840 c3         1 BN6       0.017000
     47 O38          6.8910    -6.3890    -5.5810 o          1 BN6      -0.631100
     48 C39          8.3960    -3.9860    -7.4590 c          1 BN6       0.574100
     49 H41A         5.2630     0.0500    -5.1760 h1         1 BN6       0.059200
     50 H42          6.6680    -0.1960    -4.1130 h1         1 BN6       0.059200
     51 H5           4.1490     1.3750    -3.3670 hc         1 BN6       0.057700
     52 H61          5.4590     2.2000    -1.4050 hc         1 BN6       0.036033
     53 H62          6.8180     1.1500    -1.8610 hc         1 BN6       0.036033
     54 H63          5.2700     0.4400    -1.3520 hc         1 BN6       0.036033
     55 H71          5.5060     3.4380    -3.6330 hc         1 BN6       0.036033
     56 H72          5.4050     2.5430    -5.1610 hc         1 BN6       0.036033
     57 H73          6.8920     2.4730    -4.1890 hc         1 BN6       0.036033
     58 HN8          3.7460    -2.8670    -2.5360 hn         1 BN6       0.332500
     59 H9           5.1830    -5.0740    -3.7570 h1         1 BN6       0.087700
     60 H10          2.4780    -5.0290    -2.3660 hc         1 BN6       0.063700
     61 H111         4.1690    -7.4450    -3.2410 hc         1 BN6       0.047950
     62 H112         2.5780    -7.0130    -3.8540 hc         1 BN6       0.047950
     63 H121         4.3820    -4.4230    -0.8540 hc         1 BN6       0.047950
     64 H122         5.2820    -5.8440    -1.3700 hc         1 BN6       0.047950
     65 H131         2.4140    -8.8430    -2.1690 hc         1 BN6       0.038950
     66 H132         1.5240    -7.4130    -1.6610 hc         1 BN6       0.038950
     67 H141         2.6220    -5.8290     0.1830 hc         1 BN6       0.038950
     68 H142         4.2020    -6.2710     0.8230 hc         1 BN6       0.038950
     69 H151         2.8330    -8.3080     0.2560 hc         1 BN6       0.039700
     70 H152         4.3230    -8.2510    -0.6810 hc         1 BN6       0.039700
     71 HN18         5.2020    -5.7890    -5.7630 hn         1 BN6       0.354500
     72 H221         2.0680    -6.0820    -8.2690 h1         1 BN6       0.061200
     73 H222         3.5150    -6.9890    -8.7250 h1         1 BN6       0.061200
     74 H23          1.9650    -7.2170    -6.0960 hc         1 BN6       0.061700
     75 H241         2.7700    -9.3090    -8.2590 hc         1 BN6       0.080950
     76 H242         1.7900    -9.6280    -6.7460 hc         1 BN6       0.080950
     77 H251         3.7220    -8.8420    -5.3310 hc         1 BN6       0.080950
     78 H252         4.7020    -8.5190    -6.8410 hc         1 BN6       0.080950
     79 HN26         5.3070    -3.5280    -6.7580 hn         1 BN6       0.333500
     80 H27          6.4670    -3.2000    -9.4890 h1         1 BN6       0.080700
     81 H281         6.3450    -0.7280    -9.3080 hc         1 BN6       0.042700
     82 H282         5.4120    -0.8630    -7.8280 hc         1 BN6       0.042700
     83 H29          4.4860    -1.9400   -10.5610 hc         1 BN6       0.079700
     84 H301         2.8670    -0.0360   -10.5440 hc         1 BN6       0.069450
     85 H302         3.5580     0.5620    -8.9570 hc         1 BN6       0.069450
     86 H311         2.9530    -1.6330    -7.8640 hc         1 BN6       0.069450
     87 H312         2.2610    -2.2340    -9.4490 hc         1 BN6       0.069450
     88 HO32         6.9490    -2.1400    -6.0260 ho         1 BN6       0.485000
     89 H33          8.3500    -2.1610    -8.5590 h1         1 BN6       0.070700
     90 HN40         9.0770    -8.5490    -6.3000 hn         1 BN6       0.345500
     91 H41          7.9020    -7.9190    -3.6930 h1         1 BN6       0.056700
     92 H43          7.3040   -10.5830    -6.3170 ha         1 BN6       0.111000
     93 H44          6.1760    -8.9900    -2.4570 ha         1 BN6       0.111000
     94 H45          5.3460   -12.1070    -6.2550 ha         1 BN6       0.090000
     95 H46          4.2280   -10.5300    -2.3970 ha         1 BN6       0.090000
     96 H47          3.8050   -12.0880    -4.2960 ha         1 BN6       0.087000
     97 HN35         6.9940    -5.0620    -8.5030 hn         1 BN6       0.313500
     98 H361         9.3980    -6.5350    -7.5630 h1         1 BN6       0.058200
     99 H362         7.9570    -7.2280    -8.3420 h1         1 BN6       0.058200
    100 O34          9.4030    -4.0270    -6.7620 o          1 BN6      -0.583100
    101 N35          7.8350    -5.1540    -7.9450 ns         1 BN6      -0.485900
@<TRIPOS>BOND
     1     1     2 2   
     2     1     3 1   
     3     1     8 1   
     4     3     4 1   
     5     4     5 1   
     6     4    49 1   
     7     4    50 1   
     8     5     6 1   
     9     5     7 1   
    10     5    51 1   
    11     6    52 1   
    12     6    53 1   
    13     6    54 1   
    14     7    55 1   
    15     7    56 1   
    16     7    57 1   
    17     8     9 1   
    18     8    58 1   
    19     9    10 1   
    20     9    16 1   
    21     9    59 1   
    22    10    11 1   
    23    10    12 1   
    24    10    60 1   
    25    11    13 1   
    26    11    61 1   
    27    11    62 1   
    28    12    14 1   
    29    12    63 1   
    30    12    64 1   
    31    13    15 1   
    32    13    65 1   
    33    13    66 1   
    34    14    15 1   
    35    14    67 1   
    36    14    68 1   
    37    15    69 1   
    38    15    70 1   
    39    16    17 2   
    40    16    18 1   
    41    18    45 1   
    42    18    71 1   
    43    19    20 2   
    44    19    25 1   
    45    19    45 1   
    46    21    22 1   
    47    21    45 1   
    48    21    72 1   
    49    21    73 1   
    50    22    23 1   
    51    22    24 1   
    52    22    74 1   
    53    23    24 1   
    54    23    75 1   
    55    23    76 1   
    56    24    77 1   
    57    24    78 1   
    58    25    26 1   
    59    25    79 1   
    60    26    27 1   
    61    26    32 1   
    62    26    80 1   
    63    27    28 1   
    64    27    81 1   
    65    27    82 1   
    66    28    29 1   
    67    28    30 1   
    68    28    83 1   
    69    29    30 1   
    70    29    84 1   
    71    29    85 1   
    72    30    86 1   
    73    30    87 1   
    74    31    32 1   
    75    31    88 1   
    76    32    48 1   
    77    32    89 1   
    78    33    34 1   
    79    33    46 1   
    80    33    47 2   
    81    34    35 1   
    82    34    90 1   
    83    35    36 1   
    84    35    42 1   
    85    35    91 1   
    86    36    37 ar  
    87    36    38 ar  
    88    37    39 ar  
    89    37    92 1   
    90    38    40 ar  
    91    38    93 1   
    92    39    41 ar  
    93    39    94 1   
    94    40    41 ar  
    95    40    95 1   
    96    41    96 1   
    97    42    43 1   
    98    42    44 1   
    99    46    98 1   
   100    46    99 1   
   101    46   101 1   
   102    48   100 2   
   103    48   101 1   
   104    97   101 1   
@<TRIPOS>SUBSTRUCTURE
     1 BN6         1 TEMP              0 ****  ****    0 ROOT
