@<TRIPOS>MOLECULE
BN6
  101   104     1     0     0
SMALL
bcc


@<TRIPOS>ATOM
      1 C1           5.0730    -2.0220    -3.5940 c          1 BN6       0.762100
      2 O2           5.9680    -2.6770    -4.1100 o          1 BN6      -0.620000
      3 O3           4.9990    -0.7000    -3.6170 os         1 BN6      -0.437900
      4 C4           6.0560     0.0350    -4.2460 c3         1 BN6       0.158400
      5 C5           5.6150     1.4780    -4.4060 c3         1 BN6      -0.067700
      6 C6           5.2970     2.1380    -3.0690 c3         1 BN6      -0.086600
      7 C7           6.7110     2.2390    -5.1460 c3         1 BN6      -0.086600
      8 N8           4.0440    -2.5680    -2.9260 ns         1 BN6      -0.550900
      9 C9           3.8350    -3.9980    -2.8900 c3         1 BN6       0.052700
     10 C10          2.7990    -4.3570    -1.8210 c6         1 BN6      -0.064700
     11 C11          2.5140    -5.8600    -1.8240 c6         1 BN6      -0.074900
     12 C12          3.2640    -3.9060    -0.4350 c6         1 BN6      -0.074900
     13 C13          1.5270    -6.2560    -0.7310 c6         1 BN6      -0.072400
     14 C14          2.2660    -4.2990     0.6490 c6         1 BN6      -0.072400
     15 C15          1.9950    -5.7980     0.6440 c6         1 BN6      -0.076400
     16 C16          3.3760    -4.4420    -4.2810 c          1 BN6       0.636100
     17 O17          2.3810    -3.9850    -4.8060 o          1 BN6      -0.592100
     18 N18          4.1920    -5.3390    -4.8830 ns         1 BN6      -0.418500
     19 C20          4.5370    -5.1200    -7.2140 c          1 BN6       0.828100
     20 O21          4.2940    -5.4610    -8.3620 o          1 BN6      -0.640100
     21 C22          3.0400    -6.8890    -6.3550 c3         1 BN6       0.158000
     22 C23          3.0860    -7.8780    -5.2230 cx         1 BN6      -0.166700
     23 C24          3.0680    -9.3460    -5.5300 cx         1 BN6      -0.120900
     24 C25          4.3210    -8.7000    -5.0270 cx         1 BN6      -0.120900
     25 N26          5.3610    -4.0970    -6.8920 ns         1 BN6      -0.584900
     26 C27          6.0350    -3.2950    -7.8860 c3         1 BN6       0.102700
     27 C28          5.3420    -1.9520    -8.1300 c3         1 BN6      -0.058400
     28 C29          3.9900    -2.0910    -8.7770 cx         1 BN6      -0.118700
     29 C30          2.9760    -0.9970    -8.6280 cx         1 BN6      -0.131900
     30 C31          2.7600    -2.3220    -7.9590 cx         1 BN6      -0.131900
     31 O32          7.7240    -2.1720    -6.4790 oh         1 BN6      -0.604800
     32 C33          7.5150    -3.0950    -7.5060 c3         1 BN6       0.065100
     33 C37          8.0530    -7.5210    -7.2300 c          1 BN6       0.651100
     34 N40          8.7510    -8.4880    -6.6220 ns         1 BN6      -0.535900
     35 C41          8.1650    -9.5510    -5.8500 c3         1 BN6      -0.015000
     36 C42          7.4100   -10.5560    -6.6880 ca         1 BN6      -0.023300
     37 C43          7.7760   -10.8280    -8.0030 ca         1 BN6      -0.113000
     38 C44          6.3560   -11.2720    -6.1280 ca         1 BN6      -0.113000
     39 C45          7.1010   -11.7910    -8.7430 ca         1 BN6      -0.140500
     40 C46          5.6770   -12.2320    -6.8640 ca         1 BN6      -0.140500
     41 C47          6.0490   -12.4980    -8.1770 ca         1 BN6      -0.159000
     42 C48          9.2920   -10.2940    -5.0640 c          1 BN6       0.936600
     43 O49         10.4640    -9.9670    -5.3250 o          1 BN6      -0.815300
     44 O50          8.8990   -11.1510    -4.2600 o          1 BN6      -0.815300
     45 N19          3.9670    -5.7830    -6.1490 n          1 BN6      -0.353400
     46 C36          8.9220    -6.5650    -8.0420 c3         1 BN6       0.017000
     47 O38          6.8390    -7.4220    -7.1930 o          1 BN6      -0.631100
     48 C39          8.1640    -4.4390    -7.1690 c          1 BN6       0.641100
     49 H41A         6.2900    -0.3980    -5.2210 h1         1 BN6       0.059200
     50 H42          6.9570    -0.0230    -3.6270 h1         1 BN6       0.059200
     51 H5           4.7140     1.4880    -5.0300 hc         1 BN6       0.057700
     52 H61          5.0290     3.1860    -3.2120 hc         1 BN6       0.036033
     53 H62          6.1640     2.1060    -2.4060 hc         1 BN6       0.036033
     54 H63          4.4650     1.6540    -2.5570 hc         1 BN6       0.036033
     55 H71          6.3960     3.2610    -5.3540 hc         1 BN6       0.036033
     56 H72          6.9570     1.7690    -6.0990 hc         1 BN6       0.036033
     57 H73          7.6270     2.2890    -4.5530 hc         1 BN6       0.036033
     58 HN8          3.2920    -1.9680    -2.6230 hn         1 BN6       0.332500
     59 H9           4.7800    -4.4850    -2.6290 h1         1 BN6       0.087700
     60 H10          1.8650    -3.8340    -2.0670 hc         1 BN6       0.063700
     61 H111         3.4550    -6.4060    -1.6860 hc         1 BN6       0.047950
     62 H112         2.1120    -6.1720    -2.7910 hc         1 BN6       0.047950
     63 H121         3.4210    -2.8260    -0.4120 hc         1 BN6       0.047950
     64 H122         4.2360    -4.3660    -0.2190 hc         1 BN6       0.047950
     65 H131         1.3810    -7.3390    -0.7460 hc         1 BN6       0.038950
     66 H132         0.5520    -5.8090    -0.9500 hc         1 BN6       0.038950
     67 H141         1.3260    -3.7590     0.4880 hc         1 BN6       0.038950
     68 H142         2.6410    -3.9820     1.6250 hc         1 BN6       0.038950
     69 H151         1.2500    -6.0530     1.4020 hc         1 BN6       0.039700
     70 H152         2.9120    -6.3340     0.9150 hc         1 BN6       0.039700
     71 HN18         4.9790    -5.7290    -4.3840 hn         1 BN6       0.354500
     72 H221         2.0200    -6.5160    -6.4890 h1         1 BN6       0.061200
     73 H222         3.3290    -7.3780    -7.2830 h1         1 BN6       0.061200
     74 H23          2.5570    -7.5850    -4.3230 hc         1 BN6       0.061700
     75 H241         3.0390    -9.6550    -6.5680 hc         1 BN6       0.080950
     76 H242         2.5180    -9.9950    -4.8610 hc         1 BN6       0.080950
     77 H251         4.6380    -8.9130    -4.0140 hc         1 BN6       0.080950
     78 H252         5.1300    -8.5490    -5.7320 hc         1 BN6       0.080950
     79 HN26         5.4570    -3.8250    -5.9260 hn         1 BN6       0.333500
     80 H27          6.0170    -3.8630    -8.8180 h1         1 BN6       0.080700
     81 H281         5.9860    -1.3390    -8.7680 hc         1 BN6       0.042700
     82 H282         5.2480    -1.4100    -7.1840 hc         1 BN6       0.042700
     83 H29          4.0100    -2.5860    -9.7440 hc         1 BN6       0.079700
     84 H301         2.3600    -0.7440    -9.4820 hc         1 BN6       0.069450
     85 H302         3.2350    -0.1490    -8.0050 hc         1 BN6       0.069450
     86 H311         2.8630    -2.3790    -6.8830 hc         1 BN6       0.069450
     87 H312         1.9990    -2.9780    -8.3600 hc         1 BN6       0.069450
     88 HO32         7.3350    -2.4890    -5.6520 ho         1 BN6       0.446000
     89 H33          8.0170    -2.6820    -8.3880 h1         1 BN6       0.070700
     90 HN40         9.7610    -8.4840    -6.6310 hn         1 BN6       0.345500
     91 H41          7.4740    -9.1290    -5.1130 h1         1 BN6       0.056700
     92 H43          8.5900   -10.2780    -8.4610 ha         1 BN6       0.129000
     93 H44          6.0520   -11.0660    -5.1100 ha         1 BN6       0.129000
     94 H45          7.3970   -11.9860    -9.7660 ha         1 BN6       0.108000
     95 H46          4.8540   -12.7710    -6.4130 ha         1 BN6       0.108000
     96 H47          5.5190   -13.2440    -8.7550 ha         1 BN6       0.105000
     97 HN35         7.9970    -5.0060    -9.1190 hn         1 BN6       0.313500
     98 H361         9.9150    -6.4780    -7.5960 h1         1 BN6       0.058200
     99 H362         9.0620    -6.9970    -9.0340 h1         1 BN6       0.058200
    100 O34          8.5200    -4.7190    -6.0360 o          1 BN6      -0.583100
    101 N35          8.3290    -5.2710    -8.2070 ns         1 BN6      -0.552900
@<TRIPOS>BOND
     1     1     2 2   
     2     1     3 1   
     3     1     8 1   
     4     3     4 1   
     5     4     5 1   
     6     4    49 1   
     7     4    50 1   
     8     5     6 1   
     9     5     7 1   
    10     5    51 1   
    11     6    52 1   
    12     6    53 1   
    13     6    54 1   
    14     7    55 1   
    15     7    56 1   
    16     7    57 1   
    17     8     9 1   
    18     8    58 1   
    19     9    10 1   
    20     9    16 1   
    21     9    59 1   
    22    10    11 1   
    23    10    12 1   
    24    10    60 1   
    25    11    13 1   
    26    11    61 1   
    27    11    62 1   
    28    12    14 1   
    29    12    63 1   
    30    12    64 1   
    31    13    15 1   
    32    13    65 1   
    33    13    66 1   
    34    14    15 1   
    35    14    67 1   
    36    14    68 1   
    37    15    69 1   
    38    15    70 1   
    39    16    17 2   
    40    16    18 1   
    41    18    45 1   
    42    18    71 1   
    43    19    20 2   
    44    19    25 1   
    45    19    45 1   
    46    21    22 1   
    47    21    45 1   
    48    21    72 1   
    49    21    73 1   
    50    22    23 1   
    51    22    24 1   
    52    22    74 1   
    53    23    24 1   
    54    23    75 1   
    55    23    76 1   
    56    24    77 1   
    57    24    78 1   
    58    25    26 1   
    59    25    79 1   
    60    26    27 1   
    61    26    32 1   
    62    26    80 1   
    63    27    28 1   
    64    27    81 1   
    65    27    82 1   
    66    28    29 1   
    67    28    30 1   
    68    28    83 1   
    69    29    30 1   
    70    29    84 1   
    71    29    85 1   
    72    30    86 1   
    73    30    87 1   
    74    31    32 1   
    75    31    88 1   
    76    32    48 1   
    77    32    89 1   
    78    33    34 1   
    79    33    46 1   
    80    33    47 2   
    81    34    35 1   
    82    34    90 1   
    83    35    36 1   
    84    35    42 1   
    85    35    91 1   
    86    36    37 ar  
    87    36    38 ar  
    88    37    39 ar  
    89    37    92 1   
    90    38    40 ar  
    91    38    93 1   
    92    39    41 ar  
    93    39    94 1   
    94    40    41 ar  
    95    40    95 1   
    96    41    96 1   
    97    42    43 1   
    98    42    44 1   
    99    46    98 1   
   100    46    99 1   
   101    46   101 1   
   102    48   100 2   
   103    48   101 1   
   104    97   101 1   
@<TRIPOS>SUBSTRUCTURE
     1 BN6         1 TEMP              0 ****  ****    0 ROOT
