@<TRIPOS>MOLECULE
BN7
   44    45     1     0     0
SMALL
abcg2


@<TRIPOS>ATOM
      1 O           -3.5920     1.7520    -0.7430 o          1 BN7      -0.491000
      2 C7          -3.5860     0.5700    -0.5050 c          1 BN7       0.595100
      3 O1          -4.6850    -0.1300    -0.2560 os         1 BN7      -0.454100
      4 C8          -5.9460     0.5500    -0.2680 c3         1 BN7       0.169600
      5 C9          -7.0260    -0.4270     0.1590 c3         1 BN7      -0.066700
      6 C10         -6.7970    -0.9470     1.5750 c3         1 BN7      -0.088100
      7 C11         -8.3830     0.2610     0.0420 c3         1 BN7      -0.088100
      8 C6          -2.3590    -0.3000    -0.4560 c3         1 BN7      -0.138400
      9 C5          -1.0570     0.4690    -0.6090 c3         1 BN7      -0.068400
     10 C4           0.1540    -0.4540    -0.5640 c3         1 BN7      -0.078400
     11 C3           1.4630     0.3170    -0.6830 c3         1 BN7      -0.059400
     12 C2           2.6930    -0.5720    -0.7270 c5         1 BN7       0.071300
     13 C12          4.0120     0.1850    -0.9350 c5         1 BN7       0.097700
     14 N            4.1150     1.3770    -0.1330 ns         1 BN7      -0.514900
     15 C13          5.2000     1.3860     0.6900 c          1 BN7       0.618000
     16 O2           5.5540     2.3070     1.4110 o          1 BN7      -0.579000
     17 S            2.9420    -1.5170     0.8120 ss         1 BN7      -0.405000
     18 C1           4.6010    -1.9600     0.2350 c5         1 BN7       0.034600
     19 C            5.1840    -0.6930    -0.3970 c5         1 BN7       0.107700
     20 N1           5.8070     0.1820     0.5590 ns         1 BN7      -0.531900
     21 H1          -5.9160     1.4040     0.4160 h1         1 BN7       0.048700
     22 H2          -6.1470     0.9300    -1.2730 h1         1 BN7       0.048700
     23 H3          -7.0140    -1.2750    -0.5350 hc         1 BN7       0.057700
     24 H4          -7.5860    -1.6430     1.8630 hc         1 BN7       0.036867
     25 H5          -5.8460    -1.4700     1.6720 hc         1 BN7       0.036867
     26 H6          -6.8030    -0.1240     2.2940 hc         1 BN7       0.036867
     27 H7          -8.4510     1.1160     0.7200 hc         1 BN7       0.036867
     28 H8          -8.5670     0.6220    -0.9710 hc         1 BN7       0.036867
     29 H9          -9.1880    -0.4280     0.2990 hc         1 BN7       0.036867
     30 H10         -2.3680    -0.8600     0.4840 hc         1 BN7       0.071700
     31 H11         -2.4510    -1.0540    -1.2460 hc         1 BN7       0.071700
     32 H12         -1.0580     1.0200    -1.5530 hc         1 BN7       0.055200
     33 H13         -0.9720     1.2150     0.1860 hc         1 BN7       0.055200
     34 H14          0.1420    -1.0240     0.3710 hc         1 BN7       0.046200
     35 H15          0.0860    -1.1900    -1.3710 hc         1 BN7       0.046200
     36 H16          1.4470     0.9140    -1.6010 hc         1 BN7       0.054700
     37 H17          1.5510     1.0230     0.1470 hc         1 BN7       0.054700
     38 H18          2.5880    -1.2920    -1.5450 h1         1 BN7       0.068700
     39 H19          4.1310     0.4120    -1.9980 h1         1 BN7       0.060700
     40 H20          3.6710     2.2400    -0.3990 hn         1 BN7       0.338500
     41 H21          5.2070    -2.3230     1.0640 h1         1 BN7       0.077200
     42 H22          4.5300    -2.7540    -0.5100 h1         1 BN7       0.077200
     43 H23          5.8810    -0.9680    -1.1910 h1         1 BN7       0.065700
     44 H24          6.6300    -0.0660     1.0820 hn         1 BN7       0.345500
@<TRIPOS>BOND
     1     1     2 2   
     2     2     3 1   
     3     2     8 1   
     4     3     4 1   
     5     4     5 1   
     6     4    21 1   
     7     4    22 1   
     8     5     6 1   
     9     5     7 1   
    10     5    23 1   
    11     6    24 1   
    12     6    25 1   
    13     6    26 1   
    14     7    27 1   
    15     7    28 1   
    16     7    29 1   
    17     8     9 1   
    18     8    30 1   
    19     8    31 1   
    20     9    10 1   
    21     9    32 1   
    22     9    33 1   
    23    10    11 1   
    24    10    34 1   
    25    10    35 1   
    26    11    12 1   
    27    11    36 1   
    28    11    37 1   
    29    12    13 1   
    30    12    17 1   
    31    12    38 1   
    32    13    14 1   
    33    13    19 1   
    34    13    39 1   
    35    14    15 1   
    36    14    40 1   
    37    15    16 2   
    38    15    20 1   
    39    17    18 1   
    40    18    19 1   
    41    18    41 1   
    42    18    42 1   
    43    19    20 1   
    44    19    43 1   
    45    20    44 1   
@<TRIPOS>SUBSTRUCTURE
     1 BN7         1 TEMP              0 ****  ****    0 ROOT
