@<TRIPOS>MOLECULE
BN7
   44    45     1     0     0
SMALL
No Charge or Current Charge


@<TRIPOS>ATOM
      1 O           -4.2210     0.7440    -2.7500 o          1 BN7      -0.491000
      2 C7          -3.8310    -0.0450    -1.9000 c          1 BN7       0.595100
      3 O1          -4.5110    -0.3470    -0.7500 os         1 BN7      -0.454100
      4 C8          -5.7870     0.2820    -0.5350 c3         1 BN7       0.169600
      5 C9          -6.3410    -0.1950     0.8300 c3         1 BN7      -0.066700
      6 C10         -5.4300     0.2150     2.0130 c3         1 BN7      -0.088100
      7 C11         -7.7890     0.3000     1.0470 c3         1 BN7      -0.088100
      8 C6          -2.4800    -0.7610    -1.9620 c3         1 BN7      -0.138400
      9 C5          -1.3530     0.1130    -1.3630 c3         1 BN7      -0.068400
     10 C4           0.0280    -0.5780    -1.3920 c3         1 BN7      -0.078400
     11 C3           1.1550     0.2950    -0.7920 c3         1 BN7      -0.059400
     12 C2           2.5630    -0.3570    -0.8430 c5         1 BN7       0.071300
     13 C12          3.7710     0.5640    -0.4330 c5         1 BN7       0.097700
     14 N            3.4310     1.1950     0.8480 ns         1 BN7      -0.514900
     15 C13          4.2360     0.8040     1.8600 c          1 BN7       0.618000
     16 O2           4.1540     1.1850     3.0110 o          1 BN7      -0.579000
     17 S            2.6740    -1.8320     0.2690 ss         1 BN7      -0.405000
     18 C1           4.4960    -1.8610    -0.0600 c5         1 BN7       0.034600
     19 C            4.9840    -0.3730    -0.0320 c5         1 BN7       0.107700
     20 N1           5.1610    -0.0620     1.3890 ns         1 BN7      -0.531900
     21 H1          -5.6890     1.3760    -0.5290 h1         1 BN7       0.048700
     22 H2          -6.4900     0.0050    -1.3330 h1         1 BN7       0.048700
     23 H3          -6.3760    -1.2920     0.8030 hc         1 BN7       0.057700
     24 H4          -5.8410    -0.1500     2.9620 hc         1 BN7       0.036867
     25 H5          -4.4240    -0.2080     1.9000 hc         1 BN7       0.036867
     26 H6          -5.3390     1.3060     2.0750 hc         1 BN7       0.036867
     27 H7          -7.8260     1.3960     1.0820 hc         1 BN7       0.036867
     28 H8          -8.4420    -0.0400     0.2340 hc         1 BN7       0.036867
     29 H9          -8.1950    -0.0870     1.9890 hc         1 BN7       0.036867
     30 H10         -2.5360    -1.6810    -1.3670 hc         1 BN7       0.071700
     31 H11         -2.2410    -0.9900    -3.0070 hc         1 BN7       0.071700
     32 H12         -1.2970     1.0590    -1.9180 hc         1 BN7       0.055200
     33 H13         -1.6080     0.3670    -0.3250 hc         1 BN7       0.055200
     34 H14         -0.0350    -1.5240    -0.8400 hc         1 BN7       0.046200
     35 H15          0.2820    -0.8310    -2.4300 hc         1 BN7       0.046200
     36 H16          1.1830     1.2460    -1.3390 hc         1 BN7       0.054700
     37 H17          0.8910     0.5400     0.2430 hc         1 BN7       0.054700
     38 H18          2.7280    -0.7050    -1.8720 h1         1 BN7       0.068700
     39 H19          4.0320     1.2980    -1.2080 h1         1 BN7       0.060700
     40 H20          2.6840     1.8540     1.0290 hn         1 BN7       0.338500
     41 H21          5.0180    -2.4930     0.6710 h1         1 BN7       0.077200
     42 H22          4.6620    -2.2960    -1.0540 h1         1 BN7       0.077200
     43 H23          5.8920    -0.2020    -0.6270 h1         1 BN7       0.065700
     44 H24          5.8450    -0.4550     2.0230 hn         1 BN7       0.345500
@<TRIPOS>BOND
     1     1     2 2   
     2     2     3 1   
     3     2     8 1   
     4     3     4 1   
     5     4     5 1   
     6     4    21 1   
     7     4    22 1   
     8     5     6 1   
     9     5     7 1   
    10     5    23 1   
    11     6    24 1   
    12     6    25 1   
    13     6    26 1   
    14     7    27 1   
    15     7    28 1   
    16     7    29 1   
    17     8     9 1   
    18     8    30 1   
    19     8    31 1   
    20     9    10 1   
    21     9    32 1   
    22     9    33 1   
    23    10    11 1   
    24    10    34 1   
    25    10    35 1   
    26    11    12 1   
    27    11    36 1   
    28    11    37 1   
    29    12    13 1   
    30    12    17 1   
    31    12    38 1   
    32    13    14 1   
    33    13    19 1   
    34    13    39 1   
    35    14    15 1   
    36    14    40 1   
    37    15    16 2   
    38    15    20 1   
    39    17    18 1   
    40    18    19 1   
    41    18    41 1   
    42    18    42 1   
    43    19    20 1   
    44    19    43 1   
    45    20    44 1   
@<TRIPOS>SUBSTRUCTURE
     1 BN7         1 TEMP              0 ****  ****    0 ROOT
