@<TRIPOS>MOLECULE
BN8
   68    70     1     0     0
SMALL
No Charge or Current Charge


@<TRIPOS>ATOM
      1 C13        -36.3740    -9.0500     0.7590 ca         1 BN8       0.015000
      2 C15        -34.3070   -10.0780     1.5680 ca         1 BN8       0.057000
      3 C17        -36.4550   -11.2060     1.8860 ca         1 BN8       0.015000
      4 C22        -29.4710   -10.9590     2.6740 c3         1 BN8       0.119000
      5 C24        -27.7050   -12.7820     2.2510 c3         1 BN8      -0.071400
      6 C26        -28.0510   -15.1150     1.0770 c3         1 BN8      -0.162400
      7 C01        -40.5500    -7.8160     7.3350 ca         1 BN8      -0.146000
      8 C02        -39.6510    -7.3790     6.3460 ca         1 BN8       0.312000
      9 C04        -39.8550    -9.5070     4.9730 c6         1 BN8       0.203800
     10 C05        -39.1700   -10.1510     3.7290 c6         1 BN8       0.177800
     11 C07        -39.0790    -7.9880     2.6060 c6         1 BN8       0.177800
     12 C08        -39.7620    -7.2960     3.8270 c6         1 BN8       0.203800
     13 C12        -37.1180   -10.1400     1.2470 ca         1 BN8      -0.352500
     14 C14        -34.9800    -9.0240     0.9230 ca         1 BN8      -0.178500
     15 C16        -35.0590   -11.1730     2.0460 ca         1 BN8      -0.178500
     16 C19        -31.9550   -10.7920     2.2970 c          1 BN8       0.658100
     17 C23        -29.0080   -12.1090     1.7570 c3         1 BN8      -0.103400
     18 C25        -27.1460   -13.8730     1.3040 c3         1 BN8      -0.063400
     19 C27        -28.3060   -15.9210     2.3600 c          1 BN8       0.598100
     20 C31        -38.8460    -6.2520     6.6050 ca         1 BN8      -0.110000
     21 C32        -38.9230    -5.5600     7.8340 ca         1 BN8      -0.158300
     22 C33        -39.8400    -6.0100     8.8070 ca         1 BN8      -0.093000
     23 C34        -40.6440    -7.1330     8.5550 ca         1 BN8       0.145000
     24 C36        -38.0410    -4.3310     8.0900 c3         1 BN8       0.357300
     25 F37        -36.8230    -4.4470     7.5130 f          1 BN8      -0.112000
     26 F38        -37.8240    -4.1140     9.4070 f          1 BN8      -0.112000
     27 F39        -38.6080    -3.2090     7.5930 f          1 BN8      -0.112000
     28 N03        -39.5430    -8.0480     5.1040 nh         1 BN8      -0.802400
     29 N06        -39.4720    -9.4210     2.4620 n3         1 BN8      -0.700500
     30 N18        -32.8960    -9.9760     1.6940 ns         1 BN8      -0.164000
     31 N21        -30.6760   -10.3000     2.1640 ns         1 BN8      -0.523900
     32 N29        -27.5430   -17.0770     2.4850 ns         1 BN8      -0.392400
     33 O10        -39.2970    -9.3060    -0.0680 o          1 BN8      -0.535000
     34 O11        -39.3810   -11.5670     1.1080 o          1 BN8      -0.535000
     35 O20        -32.1960   -11.8310     2.8930 o          1 BN8      -0.600100
     36 O28        -29.1390   -15.5910     3.1930 o          1 BN8      -0.559100
     37 O30        -27.8620   -18.0790     3.4820 oh         1 BN8      -0.425100
     38 S09        -38.9070   -10.1790     1.0450 sy         1 BN8       1.154600
     39 Cl35       -41.7820    -7.6840     9.7770 cl         1 BN8      -0.191000
     40 H1         -36.8690    -8.2200     0.2550 ha         1 BN8       0.133500
     41 H2         -37.0140   -12.0620     2.2620 ha         1 BN8       0.133500
     42 H3         -29.6700   -11.3460     3.6830 h1         1 BN8       0.055700
     43 H4         -28.6730   -10.2100     2.7520 h1         1 BN8       0.055700
     44 H5         -27.8660   -13.2040     3.2510 hc         1 BN8       0.044700
     45 H6         -26.9360   -12.0080     2.3680 hc         1 BN8       0.044700
     46 H7         -27.5410   -15.7530     0.3450 hc         1 BN8       0.065700
     47 H8         -29.0120   -14.7910     0.6620 hc         1 BN8       0.065700
     48 H9         -41.1890    -8.6740     7.1590 ha         1 BN8       0.135000
     49 H10        -40.9420    -9.6500     4.8870 h1         1 BN8       0.053450
     50 H11        -39.5210   -10.0500     5.8700 h1         1 BN8       0.053450
     51 H12        -39.5020   -11.1980     3.6660 h1         1 BN8       0.065700
     52 H13        -38.0850   -10.1710     3.9100 h1         1 BN8       0.065700
     53 H14        -37.9900    -7.9000     2.7320 h1         1 BN8       0.065700
     54 H15        -39.3440    -7.4170     1.7050 h1         1 BN8       0.065700
     55 H16        -39.3730    -6.2710     3.9040 h1         1 BN8       0.053450
     56 H17        -40.8400    -7.2180     3.6260 h1         1 BN8       0.053450
     57 H18        -34.4180    -8.1730     0.5440 ha         1 BN8       0.134000
     58 H19        -34.5830   -12.0110     2.5420 ha         1 BN8       0.134000
     59 H20        -28.8510   -11.7180     0.7440 hc         1 BN8       0.054200
     60 H21        -29.8070   -12.8560     1.6960 hc         1 BN8       0.054200
     61 H22        -26.1800   -14.2130     1.6970 hc         1 BN8       0.041700
     62 H23        -26.9330   -13.4140     0.3300 hc         1 BN8       0.041700
     63 H24        -38.1470    -5.9230     5.8420 ha         1 BN8       0.135000
     64 H25        -39.9390    -5.4950     9.7600 ha         1 BN8       0.147000
     65 H26        -32.5110    -9.1510     1.2550 hn         1 BN8       0.145000
     66 H27        -30.5680    -9.4290     1.6600 hn         1 BN8       0.310500
     67 H28        -26.9790   -17.3910     1.6970 hn         1 BN8       0.331500
     68 H29        -26.9970   -18.2500     3.9250 ho         1 BN8       0.445000
@<TRIPOS>BOND
     1     1    13 ar  
     2     1    14 ar  
     3     1    40 1   
     4     2    14 ar  
     5     2    15 ar  
     6     2    30 1   
     7     3    13 ar  
     8     3    15 ar  
     9     3    41 1   
    10     4    17 1   
    11     4    31 1   
    12     4    42 1   
    13     4    43 1   
    14     5    17 1   
    15     5    18 1   
    16     5    44 1   
    17     5    45 1   
    18     6    18 1   
    19     6    19 1   
    20     6    46 1   
    21     6    47 1   
    22     7     8 ar  
    23     7    23 ar  
    24     7    48 1   
    25     8    20 ar  
    26     8    28 1   
    27     9    10 1   
    28     9    28 1   
    29     9    49 1   
    30     9    50 1   
    31    10    29 1   
    32    10    51 1   
    33    10    52 1   
    34    11    12 1   
    35    11    29 1   
    36    11    53 1   
    37    11    54 1   
    38    12    28 1   
    39    12    55 1   
    40    12    56 1   
    41    13    38 1   
    42    14    57 1   
    43    15    58 1   
    44    16    30 1   
    45    16    31 1   
    46    16    35 2   
    47    17    59 1   
    48    17    60 1   
    49    18    61 1   
    50    18    62 1   
    51    19    32 1   
    52    19    36 2   
    53    20    21 ar  
    54    20    63 1   
    55    21    22 ar  
    56    21    24 1   
    57    22    23 ar  
    58    22    64 1   
    59    23    39 1   
    60    24    25 1   
    61    24    26 1   
    62    24    27 1   
    63    29    38 1   
    64    30    65 1   
    65    31    66 1   
    66    32    37 1   
    67    32    67 1   
    68    33    38 2   
    69    34    38 2   
    70    37    68 1   
@<TRIPOS>SUBSTRUCTURE
     1 BN8         1 TEMP              0 ****  ****    0 ROOT
