@<TRIPOS>MOLECULE
BN8
   68    70     1     0     0
SMALL
abcg2


@<TRIPOS>ATOM
      1 C13        -36.4500    -8.8430     0.3540 ca         1 BN8       0.015000
      2 C15        -34.3620    -9.9570     0.8700 ca         1 BN8       0.057000
      3 C17        -36.4660   -11.0300     1.3600 ca         1 BN8       0.015000
      4 C22        -29.7090   -10.8470     2.1580 c3         1 BN8       0.119000
      5 C24        -28.0340   -12.7110     2.3860 c3         1 BN8      -0.071400
      6 C26        -28.2800   -15.1490     1.5470 c3         1 BN8      -0.162400
      7 C01        -39.9610    -8.3930     7.4340 ca         1 BN8      -0.146000
      8 C02        -39.2470    -7.7460     6.4210 ca         1 BN8       0.312000
      9 C04        -39.6310    -9.6010     4.8810 c6         1 BN8       0.203800
     10 C05        -38.9680   -10.1440     3.6270 c6         1 BN8       0.177800
     11 C07        -38.7840    -7.8950     2.7540 c6         1 BN8       0.177800
     12 C08        -39.4370    -7.3710     4.0170 c6         1 BN8       0.203800
     13 C12        -37.1540    -9.9270     0.8670 ca         1 BN8      -0.352500
     14 C14        -35.0710    -8.8650     0.3530 ca         1 BN8      -0.178500
     15 C16        -35.0830   -11.0520     1.3630 ca         1 BN8      -0.178500
     16 C19        -32.0880   -10.5910     1.6250 c          1 BN8       0.658100
     17 C23        -29.1810   -12.1450     1.5580 c3         1 BN8      -0.103400
     18 C25        -27.3650   -13.9390     1.7760 c3         1 BN8      -0.063400
     19 C27        -28.9600   -15.6040     2.8180 c          1 BN8       0.598100
     20 C31        -38.5590    -6.5690     6.7450 ca         1 BN8      -0.110000
     21 C32        -38.5730    -6.0790     8.0370 ca         1 BN8      -0.158300
     22 C33        -39.2730    -6.7230     9.0530 ca         1 BN8      -0.093000
     23 C34        -39.9560    -7.8760     8.7190 ca         1 BN8       0.145000
     24 C36        -37.8370    -4.8110     8.3480 c3         1 BN8       0.357300
     25 F37        -36.7680    -4.6390     7.5650 f          1 BN8      -0.112000
     26 F38        -37.3970    -4.7840     9.6090 f          1 BN8      -0.112000
     27 F39        -38.6220    -3.7360     8.1840 f          1 BN8      -0.112000
     28 N03        -39.1670    -8.2550     5.1370 nh         1 BN8      -0.802400
     29 N06        -39.2470    -9.2580     2.4990 n3         1 BN8      -0.700500
     30 N18        -32.9810    -9.8900     0.8330 ns         1 BN8      -0.164000
     31 N21        -30.7980   -10.2530     1.4140 ns         1 BN8      -0.523900
     32 N29        -28.1920   -16.4220     3.5690 ns         1 BN8      -0.392400
     33 O10        -39.3950    -8.8780     0.0290 o          1 BN8      -0.535000
     34 O11        -39.4320   -11.2160     0.9500 o          1 BN8      -0.535000
     35 O20        -32.4400   -11.4250     2.4440 o          1 BN8      -0.600100
     36 O28        -30.0690   -15.2310     3.1610 o          1 BN8      -0.559100
     37 O30        -28.7080   -17.0080     4.6860 oh         1 BN8      -0.425100
     38 S09        -38.9100    -9.8600     0.9840 sy         1 BN8       1.154600
     39 CL35       -40.8510    -8.7060     9.9490 cl         1 BN8      -0.191000
     40 H1         -36.9660    -7.9780    -0.0400 ha         1 BN8       0.133500
     41 H2         -37.0010   -11.8920     1.7370 ha         1 BN8       0.133500
     42 H3         -30.0380   -11.0170     3.1840 h1         1 BN8       0.055700
     43 H4         -28.9080   -10.1080     2.2060 h1         1 BN8       0.055700
     44 H5         -28.3890   -12.9360     3.3970 hc         1 BN8       0.044700
     45 H6         -27.2680   -11.9400     2.5080 hc         1 BN8       0.044700
     46 H7         -27.6890   -15.9600     1.1160 hc         1 BN8       0.065700
     47 H8         -29.0600   -14.9100     0.8230 hc         1 BN8       0.065700
     48 H9         -40.5320    -9.2890     7.2310 ha         1 BN8       0.135000
     49 H10        -40.7240    -9.6480     4.7760 h1         1 BN8       0.053450
     50 H11        -39.3440   -10.2560     5.7040 h1         1 BN8       0.053450
     51 H12        -39.3700   -11.1340     3.4280 h1         1 BN8       0.065700
     52 H13        -37.8890   -10.2350     3.8040 h1         1 BN8       0.065700
     53 H14        -37.6930    -7.8650     2.8700 h1         1 BN8       0.065700
     54 H15        -39.0620    -7.2470     1.9250 h1         1 BN8       0.065700
     55 H16        -39.0410    -6.3730     4.2050 h1         1 BN8       0.053450
     56 H17        -40.5200    -7.2720     3.8580 h1         1 BN8       0.053450
     57 H18        -34.5310    -8.0130    -0.0420 ha         1 BN8       0.134000
     58 H19        -34.5770   -11.9240     1.7430 ha         1 BN8       0.134000
     59 H20        -28.8450   -11.9620     0.5330 hc         1 BN8       0.054200
     60 H21        -29.9980   -12.8680     1.5000 hc         1 BN8       0.054200
     61 H22        -26.5270   -14.2410     2.4090 hc         1 BN8       0.041700
     62 H23        -26.9310   -13.6650     0.8100 hc         1 BN8       0.041700
     63 H24        -37.9720    -6.0700     5.9860 ha         1 BN8       0.135000
     64 H25        -39.2850    -6.3530    10.0680 ha         1 BN8       0.147000
     65 H26        -32.6130    -9.1040     0.3160 hn         1 BN8       0.145000
     66 H27        -30.5570    -9.6190     0.6690 hn         1 BN8       0.310500
     67 H28        -27.3650   -16.8710     3.2010 hn         1 BN8       0.331500
     68 H29        -28.4240   -16.4610     5.4300 ho         1 BN8       0.445000
@<TRIPOS>BOND
     1     1    13 ar  
     2     1    14 ar  
     3     1    40 1   
     4     2    14 ar  
     5     2    15 ar  
     6     2    30 1   
     7     3    13 ar  
     8     3    15 ar  
     9     3    41 1   
    10     4    17 1   
    11     4    31 1   
    12     4    42 1   
    13     4    43 1   
    14     5    17 1   
    15     5    18 1   
    16     5    44 1   
    17     5    45 1   
    18     6    18 1   
    19     6    19 1   
    20     6    46 1   
    21     6    47 1   
    22     7     8 ar  
    23     7    23 ar  
    24     7    48 1   
    25     8    20 ar  
    26     8    28 1   
    27     9    10 1   
    28     9    28 1   
    29     9    49 1   
    30     9    50 1   
    31    10    29 1   
    32    10    51 1   
    33    10    52 1   
    34    11    12 1   
    35    11    29 1   
    36    11    53 1   
    37    11    54 1   
    38    12    28 1   
    39    12    55 1   
    40    12    56 1   
    41    13    38 1   
    42    14    57 1   
    43    15    58 1   
    44    16    30 1   
    45    16    31 1   
    46    16    35 2   
    47    17    59 1   
    48    17    60 1   
    49    18    61 1   
    50    18    62 1   
    51    19    32 1   
    52    19    36 2   
    53    20    21 ar  
    54    20    63 1   
    55    21    22 ar  
    56    21    24 1   
    57    22    23 ar  
    58    22    64 1   
    59    23    39 1   
    60    24    25 1   
    61    24    26 1   
    62    24    27 1   
    63    29    38 1   
    64    30    65 1   
    65    31    66 1   
    66    32    37 1   
    67    32    67 1   
    68    33    38 2   
    69    34    38 2   
    70    37    68 1   
@<TRIPOS>SUBSTRUCTURE
     1 BN8         1 TEMP              0 ****  ****    0 ROOT
