@<TRIPOS>MOLECULE
BNA
   45    48     1     0     0
SMALL
No Charge or Current Charge


@<TRIPOS>ATOM
      1 OXT          2.7870    30.5160    17.7100 o          1 BNA      -0.727000
      2 C            3.3720    29.4640    17.4990 c          1 BNA       0.714000
      3 O            3.3830    28.9110    16.4090 o          1 BNA      -0.727000
      4 CA           4.1720    28.8290    18.6620 c3         1 BNA      -0.194700
      5 CB1          3.6950    27.3750    18.9720 c3         1 BNA      -0.024100
      6 C1A          2.2420    27.1690    19.4510 ca         1 BNA      -0.022300
      7 C2A          1.4470    28.2640    19.8690 ca         1 BNA      -0.119500
      8 C3A          0.1250    28.0800    20.2970 ca         1 BNA      -0.094500
      9 C4A         -0.4330    26.7980    20.3280 ca         1 BNA      -0.134500
     10 C11          0.3370    25.6880    19.9430 ca         1 BNA      -0.034500
     11 C5A         -0.2390    24.4050    20.0000 ca         1 BNA      -0.113500
     12 C6A          0.5090    23.2760    19.6370 ca         1 BNA      -0.117000
     13 C7A          1.8380    23.4270    19.2200 ca         1 BNA      -0.134500
     14 C8A          2.4210    24.7050    19.1580 ca         1 BNA      -0.076500
     15 C12          1.6780    25.8600    19.5110 ca         1 BNA      -0.034500
     16 CB2          5.6930    28.8900    18.3370 c3         1 BNA      -0.024100
     17 C1B          6.5970    28.4670    19.5020 ca         1 BNA      -0.022300
     18 C2B          7.1640    27.1760    19.4640 ca         1 BNA      -0.119500
     19 C3B          7.9940    26.7220    20.4990 ca         1 BNA      -0.094500
     20 C4B          8.2740    27.5560    21.5890 ca         1 BNA      -0.134500
     21 C13          7.7260    28.8500    21.6460 ca         1 BNA      -0.034500
     22 C5B          8.0220    29.6730    22.7490 ca         1 BNA      -0.113500
     23 C6B          7.4900    30.9690    22.8290 ca         1 BNA      -0.117000
     24 C7B          6.6600    31.4460    21.8050 ca         1 BNA      -0.134500
     25 C8B          6.3580    30.6310    20.7000 ca         1 BNA      -0.076500
     26 C14          6.8850    29.3190    20.6050 ca         1 BNA      -0.034500
     27 HA           4.0200    29.4410    19.5580 hc         1 BNA       0.038700
     28 HB11         4.3560    26.9480    19.7360 hc         1 BNA       0.049200
     29 HB12         3.8650    26.7880    18.0630 hc         1 BNA       0.049200
     30 H2A          1.8400    29.2750    19.8730 ha         1 BNA       0.130500
     31 H3A         -0.4690    28.9370    20.6080 ha         1 BNA       0.100500
     32 H4A         -1.4600    26.6660    20.6610 ha         1 BNA       0.096500
     33 H5A         -1.2680    24.2800    20.3290 ha         1 BNA       0.097000
     34 H6A          0.0610    22.2860    19.6830 ha         1 BNA       0.095500
     35 H7A          2.4230    22.5520    18.9440 ha         1 BNA       0.102500
     36 H8A          3.4570    24.7710    18.8390 ha         1 BNA       0.132500
     37 HB21         5.9550    29.9040    18.0100 hc         1 BNA       0.049200
     38 HB22         5.8910    28.2580    17.4630 hc         1 BNA       0.049200
     39 H2B          6.9530    26.5130    18.6270 ha         1 BNA       0.130500
     40 H3B          8.4200    25.7220    20.4560 ha         1 BNA       0.100500
     41 H4B          8.9180    27.1970    22.3870 ha         1 BNA       0.096500
     42 H5B          8.6670    29.3100    23.5460 ha         1 BNA       0.097000
     43 H6B          7.7220    31.6010    23.6830 ha         1 BNA       0.095500
     44 H7B          6.2480    32.4500    21.8650 ha         1 BNA       0.102500
     45 H8B          5.7120    31.0370    19.9280 ha         1 BNA       0.132500
@<TRIPOS>BOND
     1     1     2 1   
     2     2     3 1   
     3     2     4 1   
     4     4     5 1   
     5     4    16 1   
     6     4    27 1   
     7     5     6 1   
     8     5    28 1   
     9     5    29 1   
    10     6     7 ar  
    11     6    15 ar  
    12     7     8 ar  
    13     7    30 1   
    14     8     9 ar  
    15     8    31 1   
    16     9    10 ar  
    17     9    32 1   
    18    10    11 ar  
    19    10    15 ar  
    20    11    12 ar  
    21    11    33 1   
    22    12    13 ar  
    23    12    34 1   
    24    13    14 ar  
    25    13    35 1   
    26    14    15 ar  
    27    14    36 1   
    28    16    17 1   
    29    16    37 1   
    30    16    38 1   
    31    17    18 ar  
    32    17    26 ar  
    33    18    19 ar  
    34    18    39 1   
    35    19    20 ar  
    36    19    40 1   
    37    20    21 ar  
    38    20    41 1   
    39    21    22 ar  
    40    21    26 ar  
    41    22    23 ar  
    42    22    42 1   
    43    23    24 ar  
    44    23    43 1   
    45    24    25 ar  
    46    24    44 1   
    47    25    26 ar  
    48    25    45 1   
@<TRIPOS>SUBSTRUCTURE
     1 BNA         1 TEMP              0 ****  ****    0 ROOT
