@<TRIPOS>MOLECULE
BNA
   45    48     1     0     0
SMALL
bcc


@<TRIPOS>ATOM
      1 OXT          3.2050    30.7930    17.7460 o          1 BNA      -0.832300
      2 C            3.4080    29.5730    17.5660 c          1 BNA       0.924600
      3 O            3.1230    28.9100    16.5500 o          1 BNA      -0.832300
      4 CA           4.1540    28.8310    18.7010 c3         1 BNA      -0.194700
      5 CB1          3.6860    27.4000    18.9060 c3         1 BNA      -0.024100
      6 C1A          2.2690    27.2270    19.3890 ca         1 BNA      -0.022300
      7 C2A          1.4700    28.2910    19.7240 ca         1 BNA      -0.137500
      8 C3A          0.1490    28.1130    20.1870 ca         1 BNA      -0.112500
      9 C4A         -0.3800    26.8620    20.3120 ca         1 BNA      -0.152500
     10 C11          0.4010    25.7290    19.9830 ca         1 BNA      -0.034500
     11 C5A         -0.1250    24.4210    20.1040 ca         1 BNA      -0.131500
     12 C6A          0.6320    23.3260    19.7900 ca         1 BNA      -0.135000
     13 C7A          1.9550    23.4950    19.3400 ca         1 BNA      -0.152500
     14 C8A          2.4900    24.7500    19.2130 ca         1 BNA      -0.094500
     15 C12          1.7340    25.9070    19.5240 ca         1 BNA      -0.034500
     16 CB2          5.6570    28.8660    18.3470 c3         1 BNA      -0.024100
     17 C1B          6.5630    28.4190    19.4590 ca         1 BNA      -0.022300
     18 C2B          7.1510    27.1790    19.4090 ca         1 BNA      -0.137500
     19 C3B          7.9860    26.7070    20.4420 ca         1 BNA      -0.112500
     20 C4B          8.2340    27.4880    21.5340 ca         1 BNA      -0.152500
     21 C13          7.6590    28.7770    21.6320 ca         1 BNA      -0.034500
     22 C5B          7.9120    29.6020    22.7530 ca         1 BNA      -0.131500
     23 C6B          7.3620    30.8510    22.8460 ca         1 BNA      -0.135000
     24 C7B          6.5340    31.3310    21.8120 ca         1 BNA      -0.152500
     25 C8B          6.2700    30.5550    20.7150 ca         1 BNA      -0.094500
     26 C14          6.8180    29.2530    20.5890 ca         1 BNA      -0.034500
     27 HA           4.0190    29.3910    19.6310 hc         1 BNA       0.038700
     28 HB11         4.3500    26.9020    19.6210 hc         1 BNA       0.049200
     29 HB12         3.8120    26.8570    17.9640 hc         1 BNA       0.049200
     30 H2A          1.8410    29.3020    19.6270 ha         1 BNA       0.148500
     31 H3A         -0.4430    28.9840    20.4390 ha         1 BNA       0.118500
     32 H4A         -1.3960    26.7200    20.6620 ha         1 BNA       0.114500
     33 H5A         -1.1440    24.3000    20.4530 ha         1 BNA       0.115000
     34 H6A          0.2180    22.3300    19.8870 ha         1 BNA       0.113500
     35 H7A          2.5540    22.6270    19.0950 ha         1 BNA       0.120500
     36 H8A          3.5100    24.8510    18.8670 ha         1 BNA       0.150500
     37 HB21         5.9220    29.8810    18.0380 hc         1 BNA       0.049200
     38 HB22         5.8260    28.2290    17.4760 hc         1 BNA       0.049200
     39 H2B          6.9700    26.5420    18.5510 ha         1 BNA       0.148500
     40 H3B          8.4290    25.7230    20.3610 ha         1 BNA       0.118500
     41 H4B          8.8740    27.1360    22.3340 ha         1 BNA       0.114500
     42 H5B          8.5540    29.2270    23.5410 ha         1 BNA       0.115000
     43 H6B          7.5620    31.4730    23.7080 ha         1 BNA       0.113500
     44 H7B          6.1030    32.3210    21.8870 ha         1 BNA       0.120500
     45 H8B          5.6300    30.9480    19.9360 ha         1 BNA       0.150500
@<TRIPOS>BOND
     1     1     2 1   
     2     2     3 1   
     3     2     4 1   
     4     4     5 1   
     5     4    16 1   
     6     4    27 1   
     7     5     6 1   
     8     5    28 1   
     9     5    29 1   
    10     6     7 ar  
    11     6    15 ar  
    12     7     8 ar  
    13     7    30 1   
    14     8     9 ar  
    15     8    31 1   
    16     9    10 ar  
    17     9    32 1   
    18    10    11 ar  
    19    10    15 ar  
    20    11    12 ar  
    21    11    33 1   
    22    12    13 ar  
    23    12    34 1   
    24    13    14 ar  
    25    13    35 1   
    26    14    15 ar  
    27    14    36 1   
    28    16    17 1   
    29    16    37 1   
    30    16    38 1   
    31    17    18 ar  
    32    17    26 ar  
    33    18    19 ar  
    34    18    39 1   
    35    19    20 ar  
    36    19    40 1   
    37    20    21 ar  
    38    20    41 1   
    39    21    22 ar  
    40    21    26 ar  
    41    22    23 ar  
    42    22    42 1   
    43    23    24 ar  
    44    23    43 1   
    45    24    25 ar  
    46    24    44 1   
    47    25    26 ar  
    48    25    45 1   
@<TRIPOS>SUBSTRUCTURE
     1 BNA         1 TEMP              0 ****  ****    0 ROOT
