@<TRIPOS>MOLECULE
BNB
   87    92     1     0     0
SMALL
abcg2


@<TRIPOS>ATOM
      1 C1           1.1110    -3.9100    -1.2060 ca         1 BNB      -0.018800
      2 C2           1.0730    -4.5900    -2.4210 ca         1 BNB      -0.114000
      3 C3          -0.0380    -4.5040    -3.2450 ca         1 BNB      -0.102000
      4 C4          -1.1120    -3.7150    -2.8740 ca         1 BNB      -0.095000
      5 C5          -1.0870    -3.0410    -1.6560 ca         1 BNB      -0.035000
      6 C6           0.0090    -3.1470    -0.7910 ca         1 BNB      -0.071300
      7 C8          -0.0420    -2.4820     0.5560 c3         1 BNB      -0.045800
      8 C9          -3.4770    -2.5620    -1.3350 c          1 BNB       0.627700
      9 C12         -4.1370    -0.1520    -0.8920 ca         1 BNB      -0.029500
     10 C19         -9.6070     1.7820     1.0570 c6         1 BNB      -0.084900
     11 C18         -8.6890     1.1670     0.0130 c6         1 BNB       0.212300
     12 C20         -9.2460     3.2390     1.3020 c6         1 BNB      -0.074400
     13 C21         -7.7710     3.3530     1.6540 c6         1 BNB      -0.084900
     14 C22         -6.8870     2.6940     0.6030 c6         1 BNB       0.212300
     15 C23          2.3320    -4.0050    -0.3780 cc         1 BNB       0.126400
     16 C16         -5.7260    -1.8950    -0.5410 ca         1 BNB      -0.029500
     17 C15         -6.6600    -0.9710    -0.1310 ca         1 BNB      -0.192500
     18 C24          2.8850    -5.2020    -0.0720 cd         1 BNB      -0.126400
     19 N7          -2.1620    -2.2110    -1.2870 ns         1 BNB      -0.164000
     20 C10         -4.4360    -1.5130    -0.9160 ca         1 BNB      -0.208600
     21 O11         -3.8460    -3.6720    -1.6840 o          1 BNB      -0.589100
     22 C13         -5.0720     0.7870    -0.4960 ca         1 BNB      -0.192500
     23 C14         -6.3610     0.4060    -0.0840 ca         1 BNB       0.351000
     24 N17         -7.2850     1.3160     0.3760 nh         1 BNB      -0.808400
     25 N25          4.0360    -5.2600     0.6710 n          1 BNB      -0.251000
     26 C26          4.6520    -4.1420     1.1330 c          1 BNB       0.411700
     27 C27          3.9650    -2.8860     0.7710 cd         1 BNB       0.590200
     28 N28          2.8920    -2.8400     0.0550 nc         1 BNB      -0.604300
     29 O29          5.6810    -4.1710     1.7990 o          1 BNB      -0.562000
     30 C30          4.6290    -6.5470     1.0030 c3         1 BNB       0.078300
     31 N31          4.5770    -1.7810     1.2730 nu         1 BNB      -0.888200
     32 C32          4.1970    -0.4510     1.2270 ca         1 BNB       0.332000
     33 C33          4.9470     0.4460     2.0010 ca         1 BNB      -0.168000
     34 C34          4.6300     1.7890     2.0330 ca         1 BNB      -0.044500
     35 C35          3.5820     2.2910     1.2640 ca         1 BNB      -0.182600
     36 C36          2.8440     1.4010     0.4920 ca         1 BNB      -0.044500
     37 C37          3.1310     0.0450     0.4710 ca         1 BNB      -0.168000
     38 C38          3.1990     3.7270     1.3890 c          1 BNB       0.620700
     39 N39          2.9640     4.4120     0.2460 n          1 BNB      -0.406800
     40 O40          3.0600     4.2210     2.5020 o          1 BNB      -0.598100
     41 C41          2.4360     5.7640     0.2900 c6         1 BNB       0.094500
     42 C42          3.4980     6.7760    -0.1030 c6         1 BNB       0.137800
     43 N43          4.0430     6.4580    -1.4090 n3         1 BNB      -0.715600
     44 C44          4.5950     5.1190    -1.4210 c6         1 BNB       0.137800
     45 C45          3.5430     4.0860    -1.0470 c6         1 BNB       0.094500
     46 C46          5.0160     7.4400    -1.8310 c3         1 BNB       0.152100
     47 H1           1.9310    -5.1700    -2.7360 ha         1 BNB       0.111000
     48 H2          -0.0550    -5.0270    -4.1910 ha         1 BNB       0.117000
     49 H3          -1.9570    -3.6070    -3.5380 ha         1 BNB       0.133000
     50 H4           0.2450    -1.4290     0.5060 hc         1 BNB       0.046033
     51 H5          -1.0490    -2.5260     0.9700 hc         1 BNB       0.046033
     52 H6           0.6250    -2.9570     1.2700 hc         1 BNB       0.046033
     53 H8         -10.6390     1.6880     0.7130 hc         1 BNB       0.049950
     54 H9          -9.5280     1.2120     1.9870 hc         1 BNB       0.049950
     55 H10         -8.9340     0.1160    -0.1140 h1         1 BNB       0.040450
     56 H11         -8.8710     1.6500    -0.9590 h1         1 BNB       0.040450
     57 H12         -9.4520     3.8210     0.3970 hc         1 BNB       0.042700
     58 H13         -9.8650     3.6620     2.0960 hc         1 BNB       0.042700
     59 H14         -7.4730     4.3990     1.7500 hc         1 BNB       0.049950
     60 H15         -7.5840     2.8790     2.6220 hc         1 BNB       0.049950
     61 H16         -6.9210     3.2770    -0.3290 h1         1 BNB       0.040450
     62 H17         -5.8570     2.7170     0.9580 h1         1 BNB       0.040450
     63 H18         -5.9970    -2.9420    -0.5450 ha         1 BNB       0.120000
     64 H19         -7.6270    -1.3310     0.1950 ha         1 BNB       0.117000
     65 H20          2.4590    -6.1460    -0.3750 h4         1 BNB       0.217000
     66 H21         -1.9230    -1.3510    -0.8200 hn         1 BNB       0.156000
     67 H22         -4.7910     1.8290    -0.5410 ha         1 BNB       0.117000
     68 H23          5.6420    -6.6130     0.6120 h1         1 BNB       0.057700
     69 H24          4.6580    -6.6860     2.0820 h1         1 BNB       0.057700
     70 H25          4.0290    -7.3350     0.5620 h1         1 BNB       0.057700
     71 H26          5.3990    -1.9850     1.8240 hn         1 BNB       0.523000
     72 H27          5.7790     0.0790     2.5900 ha         1 BNB       0.135500
     73 H28          5.2140     2.4540     2.6560 ha         1 BNB       0.122500
     74 H29          2.0110     1.7590    -0.1010 ha         1 BNB       0.122500
     75 H30          2.5330    -0.6200    -0.1290 ha         1 BNB       0.135500
     76 H31          1.6000     5.8220    -0.4140 h1         1 BNB       0.063450
     77 H32          2.0540     5.9800     1.2840 h1         1 BNB       0.063450
     78 H33          3.0450     7.7700    -0.1380 h1         1 BNB       0.040700
     79 H34          4.2820     6.8050     0.6740 h1         1 BNB       0.040700
     80 H36          4.9650     4.8930    -2.4230 h1         1 BNB       0.040700
     81 H37          5.4500     5.0210    -0.7280 h1         1 BNB       0.040700
     82 H38          4.0040     3.1020    -1.0260 h1         1 BNB       0.063450
     83 H39          2.7520     4.0680    -1.8020 h1         1 BNB       0.063450
     84 H40          5.8840     7.5050    -1.1580 h1         1 BNB       0.032033
     85 H41          5.3840     7.1950    -2.8280 h1         1 BNB       0.032033
     86 H42          4.5540     8.4270    -1.8760 h1         1 BNB       0.032033
     87 H7          -3.1750     0.2150    -1.2280 ha         1 BNB       0.120000
@<TRIPOS>BOND
     1     1     2 ar  
     2     1     6 ar  
     3     1    15 1   
     4     2     3 ar  
     5     2    47 1   
     6     3     4 ar  
     7     3    48 1   
     8     4     5 ar  
     9     4    49 1   
    10     5     6 ar  
    11     5    19 1   
    12     6     7 1   
    13     7    50 1   
    14     7    51 1   
    15     7    52 1   
    16     8    19 1   
    17     8    20 1   
    18     8    21 2   
    19     9    20 ar  
    20     9    22 ar  
    21     9    87 1   
    22    10    11 1   
    23    10    12 1   
    24    10    53 1   
    25    10    54 1   
    26    11    24 1   
    27    11    55 1   
    28    11    56 1   
    29    12    13 1   
    30    12    57 1   
    31    12    58 1   
    32    13    14 1   
    33    13    59 1   
    34    13    60 1   
    35    14    24 1   
    36    14    61 1   
    37    14    62 1   
    38    15    18 2   
    39    15    28 1   
    40    16    17 ar  
    41    16    20 ar  
    42    16    63 1   
    43    17    23 ar  
    44    17    64 1   
    45    18    25 1   
    46    18    65 1   
    47    19    66 1   
    48    22    23 ar  
    49    22    67 1   
    50    23    24 1   
    51    25    26 1   
    52    25    30 1   
    53    26    27 1   
    54    26    29 2   
    55    27    28 2   
    56    27    31 1   
    57    30    68 1   
    58    30    69 1   
    59    30    70 1   
    60    31    32 1   
    61    31    71 1   
    62    32    33 ar  
    63    32    37 ar  
    64    33    34 ar  
    65    33    72 1   
    66    34    35 ar  
    67    34    73 1   
    68    35    36 ar  
    69    35    38 1   
    70    36    37 ar  
    71    36    74 1   
    72    37    75 1   
    73    38    39 1   
    74    38    40 2   
    75    39    41 1   
    76    39    45 1   
    77    41    42 1   
    78    41    76 1   
    79    41    77 1   
    80    42    43 1   
    81    42    78 1   
    82    42    79 1   
    83    43    44 1   
    84    43    46 1   
    85    44    45 1   
    86    44    80 1   
    87    44    81 1   
    88    45    82 1   
    89    45    83 1   
    90    46    84 1   
    91    46    85 1   
    92    46    86 1   
@<TRIPOS>SUBSTRUCTURE
     1 BNB         1 TEMP              0 ****  ****    0 ROOT
