@<TRIPOS>MOLECULE
BNB
   87    92     1     0     0
SMALL
No Charge or Current Charge


@<TRIPOS>ATOM
      1 C1           1.0170    -3.7530    -1.0700 ca         1 BNB      -0.018800
      2 C2           1.1270    -4.3430    -2.3440 ca         1 BNB      -0.114000
      3 C3           0.0450    -4.3330    -3.2320 ca         1 BNB      -0.102000
      4 C4          -1.1620    -3.7270    -2.8610 ca         1 BNB      -0.095000
      5 C5          -1.3070    -3.1380    -1.5860 ca         1 BNB      -0.035000
      6 C6          -0.2110    -3.1510    -0.6800 ca         1 BNB      -0.071300
      7 C8          -0.3660    -2.5390     0.7210 c3         1 BNB      -0.045800
      8 C9          -3.8160    -2.5640    -1.6880 c          1 BNB       0.627700
      9 C12         -4.4660    -0.7610     0.0250 ca         1 BNB      -0.029500
     10 C19         -9.9470     2.0520     0.5160 c6         1 BNB      -0.084900
     11 C18         -8.5360     1.8080    -0.0740 c6         1 BNB       0.212300
     12 C20         -9.8650     2.5400     1.9810 c6         1 BNB      -0.074400
     13 C21         -9.0350     1.5440     2.8260 c6         1 BNB      -0.084900
     14 C22         -7.6380     1.3010     2.2020 c6         1 BNB       0.212300
     15 C23          2.2050    -3.7510    -0.2060 cc         1 BNB       0.126400
     16 C16         -6.1730    -1.6730    -1.4440 ca         1 BNB      -0.029500
     17 C15         -7.1290    -0.8370    -0.8430 ca         1 BNB      -0.192500
     18 C24          2.7380    -4.9920     0.1000 cd         1 BNB      -0.126400
     19 N7          -2.5170    -2.4920    -1.1980 ns         1 BNB      -0.164000
     20 C10         -4.8260    -1.6490    -1.0190 ca         1 BNB      -0.208600
     21 O11         -4.1510    -3.3230    -2.5910 o          1 BNB      -0.589100
     22 C13         -5.4310     0.0700     0.6190 ca         1 BNB      -0.192500
     23 C14         -6.7700     0.0400     0.1920 ca         1 BNB       0.351000
     24 N17         -7.7520     0.8700     0.7790 nh         1 BNB      -0.808400
     25 N25          3.8600    -5.1300     0.9100 n          1 BNB      -0.251000
     26 C26          4.4840    -3.9820     1.4390 c          1 BNB       0.411700
     27 C27          3.8210    -2.6730     1.0190 cd         1 BNB       0.590200
     28 N28          2.7380    -2.5620     0.2540 nc         1 BNB      -0.604300
     29 O29          5.4710    -4.0560     2.1750 o          1 BNB      -0.562000
     30 C30          4.4100    -6.4660     1.2360 c3         1 BNB       0.078300
     31 N31          4.3430    -1.4940     1.5140 nu         1 BNB      -0.888200
     32 C32          4.1200    -0.1330     1.2870 ca         1 BNB       0.332000
     33 C33          4.4930     0.7740     2.2910 ca         1 BNB      -0.168000
     34 C34          4.3090     2.1570     2.1190 ca         1 BNB      -0.044500
     35 C35          3.7690     2.6630     0.9190 ca         1 BNB      -0.182600
     36 C36          3.3870     1.7500    -0.0890 ca         1 BNB      -0.044500
     37 C37          3.5730     0.3690     0.0910 ca         1 BNB      -0.168000
     38 C38          3.5580     4.1550     0.7670 c          1 BNB       0.620700
     39 N39          3.5740     4.7160    -0.5300 n          1 BNB      -0.406800
     40 O40          3.2920     4.8430     1.7450 o          1 BNB      -0.598100
     41 C41          3.0850     6.1030    -0.7770 c6         1 BNB       0.094500
     42 C42          4.2490     7.1130    -0.9680 c6         1 BNB       0.137800
     43 N43          5.1810     6.6780    -2.0470 n3         1 BNB      -0.715600
     44 C44          5.6990     5.3080    -1.7710 c6         1 BNB       0.137800
     45 C45          4.5530     4.2750    -1.5680 c6         1 BNB       0.094500
     46 C46          6.2630     7.6560    -2.2920 c3         1 BNB       0.152100
     47 H1           2.0660    -4.7960    -2.6550 ha         1 BNB       0.111000
     48 H2           0.1470    -4.7810    -4.2190 ha         1 BNB       0.117000
     49 H3          -1.9690    -3.7090    -3.5860 ha         1 BNB       0.133000
     50 H4          -0.1110    -1.4730     0.7120 hc         1 BNB       0.046033
     51 H5          -1.3860    -2.6380     1.1100 hc         1 BNB       0.046033
     52 H6           0.2780    -3.0320     1.4580 hc         1 BNB       0.046033
     53 H8         -10.4820     2.7900    -0.0970 hc         1 BNB       0.049950
     54 H9         -10.5290     1.1220     0.4660 hc         1 BNB       0.049950
     55 H10         -8.6450     1.4130    -1.0950 h1         1 BNB       0.040450
     56 H11         -8.0060     2.7690    -0.1540 h1         1 BNB       0.040450
     57 H12         -9.4010     3.5350     2.0170 hc         1 BNB       0.042700
     58 H13        -10.8740     2.6440     2.4030 hc         1 BNB       0.042700
     59 H14         -8.9230     1.9220     3.8500 hc         1 BNB       0.049950
     60 H15         -9.5700     0.5880     2.9010 hc         1 BNB       0.049950
     61 H16         -7.0440     2.2250     2.2680 h1         1 BNB       0.040450
     62 H17         -7.1220     0.5320     2.7960 h1         1 BNB       0.040450
     63 H18         -6.4880    -2.3430    -2.2420 ha         1 BNB       0.120000
     64 H19         -8.1610    -0.8820    -1.1790 ha         1 BNB       0.117000
     65 H20          2.3210    -5.9290    -0.2560 h4         1 BNB       0.217000
     66 H21         -2.4030    -1.8540    -0.4230 hn         1 BNB       0.156000
     67 H22         -5.1250     0.7480     1.4080 ha         1 BNB       0.117000
     68 H23          5.4540    -6.5270     0.9040 h1         1 BNB       0.057700
     69 H24          4.3670    -6.6280     2.3200 h1         1 BNB       0.057700
     70 H25          3.8340    -7.2550     0.7370 h1         1 BNB       0.057700
     71 H26          5.0290    -1.6910     2.2410 hn         1 BNB       0.523000
     72 H27          4.9200     0.4090     3.2210 ha         1 BNB       0.135500
     73 H28          4.5980     2.8370     2.9180 ha         1 BNB       0.122500
     74 H29          2.9330     2.1030    -1.0130 ha         1 BNB       0.122500
     75 H30          3.2960    -0.3010    -0.7150 ha         1 BNB       0.135500
     76 H31          2.4670     6.1000    -1.6860 h1         1 BNB       0.063450
     77 H32          2.4380     6.4410     0.0440 h1         1 BNB       0.063450
     78 H33          3.8250     8.0990    -1.2030 h1         1 BNB       0.040700
     79 H34          4.7900     7.2120    -0.0140 h1         1 BNB       0.040700
     80 H36          6.3370     4.9660    -2.5990 h1         1 BNB       0.040700
     81 H37          6.3250     5.3160    -0.8660 h1         1 BNB       0.040700
     82 H38          5.0100     3.3140    -1.3020 h1         1 BNB       0.063450
     83 H39          4.0220     4.1340    -2.5200 h1         1 BNB       0.063450
     84 H40          6.8980     7.7710    -1.4030 h1         1 BNB       0.032033
     85 H41          6.8970     7.3310    -3.1280 h1         1 BNB       0.032033
     86 H42          5.8460     8.6400    -2.5470 h1         1 BNB       0.032033
     87 H7          -3.4430    -0.6960     0.3880 ha         1 BNB       0.120000
@<TRIPOS>BOND
     1     1     2 ar  
     2     1     6 ar  
     3     1    15 1   
     4     2     3 ar  
     5     2    47 1   
     6     3     4 ar  
     7     3    48 1   
     8     4     5 ar  
     9     4    49 1   
    10     5     6 ar  
    11     5    19 1   
    12     6     7 1   
    13     7    50 1   
    14     7    51 1   
    15     7    52 1   
    16     8    19 1   
    17     8    20 1   
    18     8    21 2   
    19     9    20 ar  
    20     9    22 ar  
    21     9    87 1   
    22    10    11 1   
    23    10    12 1   
    24    10    53 1   
    25    10    54 1   
    26    11    24 1   
    27    11    55 1   
    28    11    56 1   
    29    12    13 1   
    30    12    57 1   
    31    12    58 1   
    32    13    14 1   
    33    13    59 1   
    34    13    60 1   
    35    14    24 1   
    36    14    61 1   
    37    14    62 1   
    38    15    18 2   
    39    15    28 1   
    40    16    17 ar  
    41    16    20 ar  
    42    16    63 1   
    43    17    23 ar  
    44    17    64 1   
    45    18    25 1   
    46    18    65 1   
    47    19    66 1   
    48    22    23 ar  
    49    22    67 1   
    50    23    24 1   
    51    25    26 1   
    52    25    30 1   
    53    26    27 1   
    54    26    29 2   
    55    27    28 2   
    56    27    31 1   
    57    30    68 1   
    58    30    69 1   
    59    30    70 1   
    60    31    32 1   
    61    31    71 1   
    62    32    33 ar  
    63    32    37 ar  
    64    33    34 ar  
    65    33    72 1   
    66    34    35 ar  
    67    34    73 1   
    68    35    36 ar  
    69    35    38 1   
    70    36    37 ar  
    71    36    74 1   
    72    37    75 1   
    73    38    39 1   
    74    38    40 2   
    75    39    41 1   
    76    39    45 1   
    77    41    42 1   
    78    41    76 1   
    79    41    77 1   
    80    42    43 1   
    81    42    78 1   
    82    42    79 1   
    83    43    44 1   
    84    43    46 1   
    85    44    45 1   
    86    44    80 1   
    87    44    81 1   
    88    45    82 1   
    89    45    83 1   
    90    46    84 1   
    91    46    85 1   
    92    46    86 1   
@<TRIPOS>SUBSTRUCTURE
     1 BNB         1 TEMP              0 ****  ****    0 ROOT
