@<TRIPOS>MOLECULE
BNC
   66    69     1     0     0
SMALL
abcg2


@<TRIPOS>ATOM
      1 C1          -1.3290     5.7020     3.6710 c6         1 BNC      -0.065400
      2 C2          -2.0460     4.9470     4.7800 c6         1 BNC      -0.114400
      3 C3          -1.0250     4.2610     5.6760 c6         1 BNC       0.170300
      4 O3          -1.6260     3.5030     6.7080 oh         1 BNC      -0.659000
      5 C4          -0.1600     3.3240     4.8510 c6         1 BNC      -0.069400
      6 C5           0.5480     4.0510     3.6990 c6         1 BNC      -0.050700
      7 C6           1.4620     3.1300     2.8850 c6         1 BNC      -0.100400
      8 C7           0.7370     2.1580     1.9550 c6         1 BNC       0.180300
      9 O7           0.2340     1.0240     2.6440 oh         1 BNC      -0.664000
     10 C8          -0.3230     2.8810     1.1130 c6         1 BNC      -0.080700
     11 C9          -1.2430     3.7890     1.9550 c6         1 BNC      -0.042700
     12 C10         -0.4320     4.8210     2.7830 c6         1 BNC      -0.035000
     13 C11         -2.3200     4.4310     1.0720 c6         1 BNC      -0.066400
     14 C12         -3.1280     3.4450     0.2300 c6         1 BNC       0.185300
     15 O12         -3.9260     2.6920     1.1240 oh         1 BNC      -0.663000
     16 C13         -2.1920     2.5740    -0.6310 c5         1 BNC      -0.074000
     17 C14         -1.1670     1.9050     0.3040 c5         1 BNC      -0.055700
     18 C15         -0.4400     0.9200    -0.6000 c5         1 BNC      -0.072400
     19 C16         -1.5370     0.4300    -1.5640 c5         1 BNC      -0.076400
     20 C17         -2.7900     1.3160    -1.3220 c5         1 BNC      -0.056700
     21 C18         -1.5260     3.4630    -1.6880 c3         1 BNC      -0.080100
     22 C19          0.3490     5.7820     1.8790 c3         1 BNC      -0.086100
     23 C20         -3.6320     1.4860    -2.5940 c3         1 BNC      -0.053700
     24 C21         -4.8400     2.3990    -2.3980 c3         1 BNC      -0.088100
     25 C22         -4.0890     0.1140    -3.1140 c3         1 BNC      -0.076400
     26 C23         -4.6320     0.1330    -4.5380 c3         1 BNC      -0.089100
     27 H1C1        -2.0450     6.2560     3.0600 hc         1 BNC       0.039700
     28 H1C2        -0.6890     6.4640     4.1310 hc         1 BNC       0.039700
     29 H2C1        -2.6570     5.6410     5.3660 hc         1 BNC       0.049200
     30 H2C2        -2.7310     4.2020     4.3620 hc         1 BNC       0.049200
     31 H3          -0.3770     5.0420     6.1050 h1         1 BNC       0.024700
     32 HA          -2.1830     4.0930     7.2260 ho         1 BNC       0.441000
     33 H4C1        -0.8050     2.5150     4.4980 hc         1 BNC       0.053200
     34 H4C2         0.5960     2.8550     5.4880 hc         1 BNC       0.053200
     35 H5           1.1940     4.8030     4.1710 hc         1 BNC       0.043700
     36 H6C1         2.1250     3.7470     2.2720 hc         1 BNC       0.050200
     37 H6C2         2.1170     2.5670     3.5560 hc         1 BNC       0.050200
     38 H7           1.4810     1.7450     1.2660 h1         1 BNC       0.063700
     39 HB          -0.5880     1.2550     3.0830 ho         1 BNC       0.445000
     40 H8           0.2390     3.5070     0.4090 hc         1 BNC       0.052700
     41 H9          -1.7740     3.1420     2.6650 hc         1 BNC       0.060700
     42 H11         -3.0260     4.9940     1.6880 hc         1 BNC       0.047200
     43 H111        -1.8640     5.1620     0.4020 hc         1 BNC       0.047200
     44 H112        -3.7740     4.0400    -0.4300 h1         1 BNC       0.029700
     45 H14         -1.7570     1.3170     1.0170 hc         1 BNC       0.060700
     46 H151         0.0160     0.1030    -0.0400 hc         1 BNC       0.047200
     47 H152         0.3660     1.4190    -1.1460 hc         1 BNC       0.047200
     48 H161        -1.2090     0.5140    -2.6030 hc         1 BNC       0.041200
     49 H162        -1.7680    -0.6230    -1.4010 hc         1 BNC       0.041200
     50 H17         -3.4170     0.7930    -0.5870 hc         1 BNC       0.043700
     51 H181        -2.2720     4.0070    -2.2710 hc         1 BNC       0.033700
     52 H182        -0.8650     4.2090    -1.2490 hc         1 BNC       0.033700
     53 H183        -0.9270     2.8870    -2.3930 hc         1 BNC       0.033700
     54 H191         0.9660     6.4470     2.4860 hc         1 BNC       0.033033
     55 H192         1.0140     5.2840     1.1750 hc         1 BNC       0.033033
     56 H193        -0.3260     6.4120     1.2970 hc         1 BNC       0.033033
     57 H20         -2.9890     1.9330    -3.3640 hc         1 BNC       0.048700
     58 H211        -5.4620     2.0570    -1.5660 hc         1 BNC       0.031700
     59 H212        -5.4760     2.4090    -3.2840 hc         1 BNC       0.031700
     60 H213        -4.5550     3.4320    -2.2060 hc         1 BNC       0.031700
     61 H221        -4.8490    -0.2870    -2.4330 hc         1 BNC       0.038700
     62 H222        -3.2560    -0.5900    -3.0790 hc         1 BNC       0.038700
     63 H231        -4.9130    -0.8700    -4.8620 hc         1 BNC       0.031700
     64 H232        -3.8780     0.5060    -5.2350 hc         1 BNC       0.031700
     65 H233        -5.5140     0.7670    -4.6400 hc         1 BNC       0.031700
     66 HO1         -4.5020     2.1180     0.6120 ho         1 BNC       0.443000
@<TRIPOS>BOND
     1     1     2 1   
     2     1    12 1   
     3     1    27 1   
     4     1    28 1   
     5     2     3 1   
     6     2    29 1   
     7     2    30 1   
     8     3     4 1   
     9     3     5 1   
    10     3    31 1   
    11     4    32 1   
    12     5     6 1   
    13     5    33 1   
    14     5    34 1   
    15     6     7 1   
    16     6    12 1   
    17     6    35 1   
    18     7     8 1   
    19     7    36 1   
    20     7    37 1   
    21     8     9 1   
    22     8    10 1   
    23     8    38 1   
    24     9    39 1   
    25    10    11 1   
    26    10    17 1   
    27    10    40 1   
    28    11    12 1   
    29    11    13 1   
    30    11    41 1   
    31    12    22 1   
    32    13    14 1   
    33    13    42 1   
    34    13    43 1   
    35    14    15 1   
    36    14    16 1   
    37    14    44 1   
    38    15    66 1   
    39    16    17 1   
    40    16    20 1   
    41    16    21 1   
    42    17    18 1   
    43    17    45 1   
    44    18    19 1   
    45    18    46 1   
    46    18    47 1   
    47    19    20 1   
    48    19    48 1   
    49    19    49 1   
    50    20    23 1   
    51    20    50 1   
    52    21    51 1   
    53    21    52 1   
    54    21    53 1   
    55    22    54 1   
    56    22    55 1   
    57    22    56 1   
    58    23    24 1   
    59    23    25 1   
    60    23    57 1   
    61    24    58 1   
    62    24    59 1   
    63    24    60 1   
    64    25    26 1   
    65    25    61 1   
    66    25    62 1   
    67    26    63 1   
    68    26    64 1   
    69    26    65 1   
@<TRIPOS>SUBSTRUCTURE
     1 BNC         1 TEMP              0 ****  ****    0 ROOT
