@<TRIPOS>MOLECULE
BNC
   66    69     1     0     0
SMALL
No Charge or Current Charge


@<TRIPOS>ATOM
      1 C1          -1.3240     5.7450     3.7520 c6         1 BNC      -0.065400
      2 C2          -2.0720     4.9720     4.8640 c6         1 BNC      -0.114400
      3 C3          -1.0640     4.2480     5.7820 c6         1 BNC       0.170300
      4 O3          -1.7620     3.5130     6.7890 oh         1 BNC      -0.659000
      5 C4          -0.1750     3.2960     4.9510 c6         1 BNC      -0.069400
      6 C5           0.5720     4.0430     3.7940 c6         1 BNC      -0.050700
      7 C6           1.5030     3.0830     2.9840 c6         1 BNC      -0.100400
      8 C7           0.7590     2.1180     2.0190 c6         1 BNC       0.180300
      9 O7           0.1650     1.0370     2.7470 oh         1 BNC      -0.664000
     10 C8          -0.2800     2.8720     1.1230 c6         1 BNC      -0.080700
     11 C9          -1.2290     3.8170     1.9560 c6         1 BNC      -0.042700
     12 C10         -0.4040     4.8450     2.8490 c6         1 BNC      -0.035000
     13 C11         -2.2870     4.5060     1.0200 c6         1 BNC      -0.066400
     14 C12         -3.0820     3.5110     0.1200 c6         1 BNC       0.185300
     15 O12         -3.9660     2.7330     0.9380 oh         1 BNC      -0.663000
     16 C13         -2.1200     2.6090    -0.7390 c5         1 BNC      -0.074000
     17 C14         -1.1240     1.8990     0.2390 c5         1 BNC      -0.055700
     18 C15         -0.3420     0.9500    -0.7050 c5         1 BNC      -0.072400
     19 C16         -1.4410     0.4440    -1.6910 c5         1 BNC      -0.076400
     20 C17         -2.7340     1.2960    -1.3920 c5         1 BNC      -0.056700
     21 C18         -1.4460     3.5280    -1.8210 c3         1 BNC      -0.080100
     22 C19          0.4290     5.8420     1.9620 c3         1 BNC      -0.086100
     23 C20         -3.6890     1.4210    -2.6380 c3         1 BNC      -0.053700
     24 C21         -4.9090     2.3510    -2.4050 c3         1 BNC      -0.088100
     25 C22         -4.1550     0.0170    -3.1440 c3         1 BNC      -0.076400
     26 C23         -4.9170     0.0080    -4.4890 c3         1 BNC      -0.089100
     27 H1C1        -2.0420     6.3120     3.1480 hc         1 BNC       0.039700
     28 H1C2        -0.7060     6.5130     4.2400 hc         1 BNC       0.039700
     29 H2C1        -2.6720     5.6770     5.4540 hc         1 BNC       0.049200
     30 H2C2        -2.7800     4.2560     4.4250 hc         1 BNC       0.049200
     31 H3          -0.4170     5.0020     6.2560 h1         1 BNC       0.024700
     32 HA          -2.2770     4.1690     7.3080 ho         1 BNC       0.441000
     33 H4C1        -0.8070     2.4880     4.5700 hc         1 BNC       0.053200
     34 H4C2         0.5610     2.8210     5.6140 hc         1 BNC       0.053200
     35 H5           1.2310     4.7730     4.2860 hc         1 BNC       0.043700
     36 H6C1         2.2130     3.6810     2.3980 hc         1 BNC       0.050200
     37 H6C2         2.1300     2.5030     3.6740 hc         1 BNC       0.050200
     38 H7           1.5230     1.6960     1.3480 h1         1 BNC       0.063700
     39 HB          -0.6700     1.3900     3.1160 ho         1 BNC       0.445000
     40 H8           0.3060     3.4890     0.4330 hc         1 BNC       0.052700
     41 H9          -1.8060     3.1710     2.6290 hc         1 BNC       0.060700
     42 H11         -3.0180     5.0590     1.6220 hc         1 BNC       0.047200
     43 H111        -1.8070     5.2570     0.3840 hc         1 BNC       0.047200
     44 H112        -3.6850     4.1290    -0.5560 h1         1 BNC       0.029700
     45 H14         -1.6880     1.2910     0.9580 hc         1 BNC       0.060700
     46 H151         0.1260     0.1240    -0.1580 hc         1 BNC       0.047200
     47 H152         0.4620     1.4730    -1.2350 hc         1 BNC       0.047200
     48 H161        -1.1030     0.5610    -2.7270 hc         1 BNC       0.041200
     49 H162        -1.6330    -0.6260    -1.5480 hc         1 BNC       0.041200
     50 H17         -3.3230     0.7530    -0.6420 hc         1 BNC       0.043700
     51 H181        -2.2030     4.0500    -2.4180 hc         1 BNC       0.033700
     52 H182        -0.8010     4.2960    -1.3840 hc         1 BNC       0.033700
     53 H183        -0.8270     2.9690    -2.5310 hc         1 BNC       0.033700
     54 H191         1.0580     6.4900     2.5840 hc         1 BNC       0.033033
     55 H192         1.1010     5.3450     1.2560 hc         1 BNC       0.033033
     56 H193        -0.2180     6.5080     1.3790 hc         1 BNC       0.033033
     57 H20         -3.1120     1.8680    -3.4570 hc         1 BNC       0.048700
     58 H211        -5.4790     2.0430    -1.5200 hc         1 BNC       0.031700
     59 H212        -5.5890     2.3510    -3.2620 hc         1 BNC       0.031700
     60 H213        -4.5930     3.3900    -2.2830 hc         1 BNC       0.031700
     61 H221        -4.7800    -0.4590    -2.3770 hc         1 BNC       0.038700
     62 H222        -3.2830    -0.6330    -3.2750 hc         1 BNC       0.038700
     63 H231        -5.0430    -1.0220    -4.8420 hc         1 BNC       0.031700
     64 H232        -4.3630     0.5650    -5.2540 hc         1 BNC       0.031700
     65 H233        -5.9170     0.4460    -4.3890 hc         1 BNC       0.031700
     66 HO1         -4.3840     2.0820     0.3390 ho         1 BNC       0.443000
@<TRIPOS>BOND
     1     1     2 1   
     2     1    12 1   
     3     1    27 1   
     4     1    28 1   
     5     2     3 1   
     6     2    29 1   
     7     2    30 1   
     8     3     4 1   
     9     3     5 1   
    10     3    31 1   
    11     4    32 1   
    12     5     6 1   
    13     5    33 1   
    14     5    34 1   
    15     6     7 1   
    16     6    12 1   
    17     6    35 1   
    18     7     8 1   
    19     7    36 1   
    20     7    37 1   
    21     8     9 1   
    22     8    10 1   
    23     8    38 1   
    24     9    39 1   
    25    10    11 1   
    26    10    17 1   
    27    10    40 1   
    28    11    12 1   
    29    11    13 1   
    30    11    41 1   
    31    12    22 1   
    32    13    14 1   
    33    13    42 1   
    34    13    43 1   
    35    14    15 1   
    36    14    16 1   
    37    14    44 1   
    38    15    66 1   
    39    16    17 1   
    40    16    20 1   
    41    16    21 1   
    42    17    18 1   
    43    17    45 1   
    44    18    19 1   
    45    18    46 1   
    46    18    47 1   
    47    19    20 1   
    48    19    48 1   
    49    19    49 1   
    50    20    23 1   
    51    20    50 1   
    52    21    51 1   
    53    21    52 1   
    54    21    53 1   
    55    22    54 1   
    56    22    55 1   
    57    22    56 1   
    58    23    24 1   
    59    23    25 1   
    60    23    57 1   
    61    24    58 1   
    62    24    59 1   
    63    24    60 1   
    64    25    26 1   
    65    25    61 1   
    66    25    62 1   
    67    26    63 1   
    68    26    64 1   
    69    26    65 1   
@<TRIPOS>SUBSTRUCTURE
     1 BNC         1 TEMP              0 ****  ****    0 ROOT
