@<TRIPOS>MOLECULE
BND
   55    56     1     0     0
SMALL
bcc


@<TRIPOS>ATOM
      1 CY1          3.7840     1.5620    -1.3600 c3         1 BND       0.145700
      2 CX1          2.7520    -0.8020    -2.5510 c          1 BND       0.897600
      3 O1A          2.5660    -1.4500    -1.5100 o          1 BND      -0.809800
      4 O1B          3.4730    -1.1100    -3.5190 o          1 BND      -0.809800
      5 CX2          2.0450     0.5890    -2.6820 c6         1 BND       0.218600
      6 OX2          2.9670     1.6190    -2.5120 os         1 BND      -0.406600
      7 CX3          1.4170     0.7910    -4.0550 c6         1 BND      -0.116400
      8 CX4          0.2250    -0.1340    -4.2470 c6         1 BND       0.134100
      9 OX4         -0.4340     0.0920    -5.4710 oh         1 BND      -0.604800
     10 CX5         -0.7850     0.0930    -3.1280 c6         1 BND       0.074700
     11 NX5         -1.8670    -0.8580    -3.2010 ns         1 BND      -0.563900
     12 C10         -3.1310    -0.5660    -3.5670 c          1 BND       0.672100
     13 O10         -3.5150     0.5680    -3.8130 o          1 BND      -0.603100
     14 C11         -4.0450    -1.7660    -3.6330 c3         1 BND      -0.183100
     15 CX6         -0.0960    -0.0230    -1.7600 c6         1 BND       0.139100
     16 OX6          1.0560     0.7820    -1.6930 os         1 BND      -0.464600
     17 CX7         -0.9940     0.4660    -0.6240 c3         1 BND       0.133100
     18 OX7         -1.1770     1.8590    -0.6890 oh         1 BND      -0.599800
     19 CX8         -0.4510     0.0200     0.7440 c3         1 BND       0.093100
     20 OX8         -0.4920    -1.3870     0.8600 oh         1 BND      -0.580800
     21 CX9         -1.2040     0.6880     1.8890 c3         1 BND       0.067000
     22 NX6         -0.7100     0.1860     3.1510 ns         1 BND      -0.559900
     23 C12         -0.8640     0.8420     4.3120 c          1 BND       0.674700
     24 O12         -1.4360     1.9210     4.3990 o          1 BND      -0.614100
     25 C1G         -0.2860     0.1720     5.5180 ca         1 BND      -0.145600
     26 CD1         -0.8640     0.4320     6.7590 ca         1 BND      -0.090500
     27 CE1         -0.3580    -0.1590     7.9060 ca         1 BND      -0.142500
     28 CD2          0.8250    -0.6670     5.4470 ca         1 BND      -0.090500
     29 CE2          1.3400    -1.2460     6.5970 ca         1 BND      -0.142500
     30 C1Z          0.7470    -0.9990     7.8280 ca         1 BND      -0.117000
     31 HY11         4.3570     2.4880    -1.3410 h1         1 BND       0.023700
     32 HY12         3.2060     1.4970    -0.4360 h1         1 BND       0.023700
     33 HY13         4.4910     0.7280    -1.3880 h1         1 BND       0.023700
     34 HX31         1.0810     1.8300    -4.1440 hc         1 BND       0.060200
     35 HX32         2.1610     0.6150    -4.8330 hc         1 BND       0.060200
     36 HX4          0.5720    -1.1780    -4.1910 h1         1 BND       0.049700
     37 HA           0.1780    -0.1160    -6.1840 ho         1 BND       0.399000
     38 HX5         -1.2090     1.0940    -3.2390 h1         1 BND       0.102700
     39 HB          -1.6310    -1.8290    -3.0630 hn         1 BND       0.304500
     40 H111        -5.0500    -1.4630    -3.9140 hc         1 BND       0.051367
     41 H112        -3.6810    -2.4910    -4.3630 hc         1 BND       0.051367
     42 H113        -4.0900    -2.2740    -2.6680 hc         1 BND       0.051367
     43 HX6          0.1550    -1.0760    -1.5840 h1         1 BND       0.083700
     44 HX7         -1.9880     0.0210    -0.7490 h1         1 BND       0.057700
     45 HC          -0.3080     2.2600    -0.8150 ho         1 BND       0.428000
     46 HX8          0.6080     0.2860     0.8220 h1         1 BND       0.114700
     47 HD          -1.4090    -1.6780     0.7810 ho         1 BND       0.384000
     48 HX91        -1.0580     1.7650     1.8520 h1         1 BND       0.059200
     49 HX92        -2.2820     0.5040     1.7910 h1         1 BND       0.059200
     50 HE          -0.4030    -0.7740     3.1670 hn         1 BND       0.326500
     51 HD1         -1.7200     1.0910     6.8250 ha         1 BND       0.147000
     52 HE1         -0.8230     0.0370     8.8630 ha         1 BND       0.130000
     53 HD2          1.3170    -0.8540     4.5000 ha         1 BND       0.147000
     54 HE2          2.2090    -1.8870     6.5320 ha         1 BND       0.130000
     55 H1Z          1.1460    -1.4550     8.7240 ha         1 BND       0.125000
@<TRIPOS>BOND
     1     1     6 1   
     2     1    31 1   
     3     1    32 1   
     4     1    33 1   
     5     2     3 1   
     6     2     4 1   
     7     2     5 1   
     8     5     6 1   
     9     5     7 1   
    10     5    16 1   
    11     7     8 1   
    12     7    34 1   
    13     7    35 1   
    14     8     9 1   
    15     8    10 1   
    16     8    36 1   
    17     9    37 1   
    18    10    11 1   
    19    10    15 1   
    20    10    38 1   
    21    11    12 1   
    22    11    39 1   
    23    12    13 2   
    24    12    14 1   
    25    14    40 1   
    26    14    41 1   
    27    14    42 1   
    28    15    16 1   
    29    15    17 1   
    30    15    43 1   
    31    17    18 1   
    32    17    19 1   
    33    17    44 1   
    34    18    45 1   
    35    19    20 1   
    36    19    21 1   
    37    19    46 1   
    38    20    47 1   
    39    21    22 1   
    40    21    48 1   
    41    21    49 1   
    42    22    23 1   
    43    22    50 1   
    44    23    24 2   
    45    23    25 1   
    46    25    26 ar  
    47    25    28 ar  
    48    26    27 ar  
    49    26    51 1   
    50    27    30 ar  
    51    27    52 1   
    52    28    29 ar  
    53    28    53 1   
    54    29    30 ar  
    55    29    54 1   
    56    30    55 1   
@<TRIPOS>SUBSTRUCTURE
     1 BND         1 TEMP              0 ****  ****    0 ROOT
