@<TRIPOS>MOLECULE
BND
   55    56     1     0     0
SMALL
No Charge or Current Charge


@<TRIPOS>ATOM
      1 CY1          3.7630     2.1930    -1.9090 c3         1 BND       0.168900
      2 CX1          3.0140    -0.7180    -2.8620 c          1 BND       0.687000
      3 O1A          2.6840    -1.4870    -1.9660 o          1 BND      -0.704500
      4 O1B          4.2080    -0.6660    -3.1460 o          1 BND      -0.704500
      5 CX2          2.1620     0.6570    -3.0190 c6         1 BND       0.265000
      6 OX2          3.0150     1.8350    -3.0900 os         1 BND      -0.453000
      7 CX3          1.3790     0.6300    -4.3600 c6         1 BND      -0.116400
      8 CX4          0.1830    -0.3450    -4.3110 c6         1 BND       0.157300
      9 OX4         -0.5080    -0.3200    -5.5700 oh         1 BND      -0.667000
     10 CX5         -0.7680     0.0330    -3.1390 c6         1 BND       0.074700
     11 NX5         -1.9140    -0.9050    -3.0540 ns         1 BND      -0.496900
     12 C10         -3.2030    -0.6340    -3.4520 c          1 BND       0.605100
     13 O10         -3.5590     0.4680    -3.8460 o          1 BND      -0.603100
     14 C11         -4.1620    -1.8130    -3.3420 c3         1 BND      -0.183100
     15 CX6          0.0480     0.0600    -1.8140 c6         1 BND       0.162300
     16 OX6          1.2070     0.9420    -1.9440 os         1 BND      -0.511000
     17 CX7         -0.7800     0.6340    -0.6130 c3         1 BND       0.156300
     18 OX7         -0.7290     2.0690    -0.6810 oh         1 BND      -0.722000
     19 CX8         -0.2610     0.1580     0.7820 c3         1 BND       0.116300
     20 OX8         -0.3740    -1.2780     0.8980 oh         1 BND      -0.643000
     21 CX9         -1.0060     0.8260     1.9700 c3         1 BND       0.067000
     22 NX6         -0.6380     0.2360     3.2640 ns         1 BND      -0.492900
     23 C12         -0.9560     0.7740     4.4920 c          1 BND       0.607700
     24 O12         -1.5940     1.8160     4.5770 o          1 BND      -0.614100
     25 C1G         -0.4800     0.0140     5.7150 ca         1 BND      -0.145600
     26 CD1         -0.7790     0.5170     7.0030 ca         1 BND      -0.072500
     27 CE1         -0.3530    -0.1620     8.1580 ca         1 BND      -0.124500
     28 CD2          0.2590    -1.1920     5.6170 ca         1 BND      -0.072500
     29 CE2          0.6820    -1.8670     6.7750 ca         1 BND      -0.124500
     30 C1Z          0.3780    -1.3540     8.0450 ca         1 BND      -0.099000
     31 HY11         4.3980     3.0650    -2.1140 h1         1 BND       0.023700
     32 HY12         3.0920     2.4560    -1.0820 h1         1 BND       0.023700
     33 HY13         4.4120     1.3740    -1.5790 h1         1 BND       0.023700
     34 HX31         1.0170     1.6410    -4.5950 hc         1 BND       0.060200
     35 HX32         2.0610     0.3480    -5.1730 hc         1 BND       0.060200
     36 HX4          0.5680    -1.3600    -4.1260 h1         1 BND       0.049700
     37 HA           0.1150    -0.6610    -6.2470 ho         1 BND       0.438000
     38 HX5         -1.1520     1.0470    -3.3220 h1         1 BND       0.102700
     39 HB          -1.7340    -1.8570    -2.7580 hn         1 BND       0.304500
     40 H111        -5.1820    -1.5600    -3.6540 hc         1 BND       0.051367
     41 H112        -3.7600    -2.6540    -3.9180 hc         1 BND       0.051367
     42 H113        -4.1370    -2.2000    -2.3170 hc         1 BND       0.051367
     43 HX6          0.3670    -0.9620    -1.5690 h1         1 BND       0.083700
     44 HX7         -1.8210     0.2950    -0.7080 h1         1 BND       0.057700
     45 HC           0.1180     2.2290    -1.1730 ho         1 BND       0.527000
     46 HX8          0.7970     0.4480     0.8530 h1         1 BND       0.114700
     47 HD          -1.3240    -1.4910     1.0290 ho         1 BND       0.423000
     48 HX91        -0.7700     1.8980     1.9900 h1         1 BND       0.059200
     49 HX92        -2.0910     0.7230     1.8320 h1         1 BND       0.059200
     50 HE          -0.1140    -0.6290     3.2590 hn         1 BND       0.326500
     51 HD1         -1.3440     1.4400     7.1150 ha         1 BND       0.129000
     52 HE1         -0.5900     0.2380     9.1410 ha         1 BND       0.112000
     53 HD2          0.5160    -1.6220     4.6520 ha         1 BND       0.129000
     54 HE2          1.2490    -2.7910     6.6870 ha         1 BND       0.112000
     55 H1Z          0.7070    -1.8790     8.9400 ha         1 BND       0.107000
@<TRIPOS>BOND
     1     1     6 1   
     2     1    31 1   
     3     1    32 1   
     4     1    33 1   
     5     2     3 1   
     6     2     4 1   
     7     2     5 1   
     8     5     6 1   
     9     5     7 1   
    10     5    16 1   
    11     7     8 1   
    12     7    34 1   
    13     7    35 1   
    14     8     9 1   
    15     8    10 1   
    16     8    36 1   
    17     9    37 1   
    18    10    11 1   
    19    10    15 1   
    20    10    38 1   
    21    11    12 1   
    22    11    39 1   
    23    12    13 2   
    24    12    14 1   
    25    14    40 1   
    26    14    41 1   
    27    14    42 1   
    28    15    16 1   
    29    15    17 1   
    30    15    43 1   
    31    17    18 1   
    32    17    19 1   
    33    17    44 1   
    34    18    45 1   
    35    19    20 1   
    36    19    21 1   
    37    19    46 1   
    38    20    47 1   
    39    21    22 1   
    40    21    48 1   
    41    21    49 1   
    42    22    23 1   
    43    22    50 1   
    44    23    24 2   
    45    23    25 1   
    46    25    26 ar  
    47    25    28 ar  
    48    26    27 ar  
    49    26    51 1   
    50    27    30 ar  
    51    27    52 1   
    52    28    29 ar  
    53    28    53 1   
    54    29    30 ar  
    55    29    54 1   
    56    30    55 1   
@<TRIPOS>SUBSTRUCTURE
     1 BND         1 TEMP              0 ****  ****    0 ROOT
