@<TRIPOS>MOLECULE
BNE
   68    71     1     0     0
SMALL
No Charge or Current Charge


@<TRIPOS>ATOM
      1 C1          14.3740   135.5240    -4.7660 c3         1 BNE      -0.067700
      2 C2          14.3490   134.0920    -4.1710 ca         1 BNE      -0.030300
      3 C3          15.8410   136.1140    -4.8160 c          1 BNE       0.564000
      4 C4          13.7540   135.5980    -6.2130 c3         1 BNE      -0.066400
      5 C5          13.4590   136.4150    -3.8490 c3         1 BNE      -0.054400
      6 C6          15.4190   133.6160    -3.3780 ca         1 BNE      -0.174000
      7 C7          13.2250   133.2520    -4.3450 ca         1 BNE      -0.133000
      8 N8          16.7940   135.6240    -5.7500 n          1 BNE      -0.409800
      9 O9          16.1700   137.0510    -4.0960 o          1 BNE      -0.579000
     10 C10         14.2180   134.5290    -7.2710 c3         1 BNE      -0.074400
     11 C11         13.7000   136.3280    -2.3190 c3         1 BNE      -0.087100
     12 C12         15.4010   132.3130    -2.8430 ca         1 BNE       0.123100
     13 C13         13.1960   131.9590    -3.7940 ca         1 BNE      -0.081000
     14 C14         16.6350   134.3400    -6.4630 c3         1 BNE       0.104000
     15 C15         18.1210   136.2750    -5.8560 c3         1 BNE       0.084300
     16 C16         15.7220   134.4770    -7.6820 c3         1 BNE      -0.096400
     17 O17         16.4650   131.8230    -2.1150 os         1 BNE      -0.253200
     18 C18         14.2890   131.4870    -3.0510 ca         1 BNE      -0.124000
     19 C19         17.7070   132.4180    -2.1480 ca         1 BNE       0.132100
     20 C20         18.5410   132.3100    -3.2810 ca         1 BNE      -0.033000
     21 C21         18.1190   133.1690    -1.0370 ca         1 BNE      -0.112000
     22 C22         19.7840   132.9690    -3.2830 ca         1 BNE      -0.070000
     23 C23         18.1440   131.5430    -4.4310 cg         1 BNE       0.332000
     24 C24         19.3630   133.8360    -1.0280 ca         1 BNE      -0.042300
     25 C25         20.1910   133.7260    -2.1710 ca         1 BNE      -0.107000
     26 N26         17.8310   130.9300    -5.3740 n1         1 BNE      -0.448000
     27 C27         19.7620   134.6610     0.2170 c3         1 BNE       0.297800
     28 C28         19.6050   133.8390     1.4810 cc         1 BNE      -0.212300
     29 C29         18.9000   135.9420     0.2530 c3         1 BNE      -0.118100
     30 N30         21.1600   135.0970     0.1800 n8         1 BNE      -1.002200
     31 N31         20.1610   132.5890     1.7210 na         1 BNE      -0.154500
     32 C32         18.8760   134.1210     2.6130 cd         1 BNE       0.239900
     33 C33         19.7530   132.1890     2.9770 cc         1 BNE       0.396400
     34 C34         21.0210   131.8050     0.8180 c3         1 BNE       0.057900
     35 NZ          18.9720   133.1010     3.5360 nd         1 BNE      -0.675000
     36 H41         13.9480   136.5960    -6.6250 hc         1 BNE       0.048200
     37 H42         12.6610   135.5210    -6.1530 hc         1 BNE       0.048200
     38 H51         12.4120   136.1380    -4.0200 hc         1 BNE       0.046200
     39 H52         13.5420   137.4620    -4.1660 hc         1 BNE       0.046200
     40 H61         16.2720   134.2560    -3.1760 ha         1 BNE       0.131000
     41 H71         12.3620   133.5960    -4.9080 ha         1 BNE       0.117000
     42 H101        13.6330   134.6900    -8.1850 hc         1 BNE       0.045200
     43 H102        13.9300   133.5310    -6.9210 hc         1 BNE       0.045200
     44 H111        14.7380   136.5490    -2.0510 hc         1 BNE       0.037700
     45 H112        13.0590   137.0490    -1.7980 hc         1 BNE       0.037700
     46 H113        13.4530   135.3310    -1.9370 hc         1 BNE       0.037700
     47 H131        12.3270   131.3230    -3.9450 ha         1 BNE       0.118000
     48 H141        16.2600   133.5580    -5.7960 h1         1 BNE       0.057200
     49 H142        17.6210   134.0020    -6.8090 h1         1 BNE       0.057200
     50 H151        18.7310   136.0120    -4.9820 h1         1 BNE       0.041700
     51 H152        18.6390   135.9490    -6.7670 h1         1 BNE       0.041700
     52 H153        18.0030   137.3660    -5.9000 h1         1 BNE       0.041700
     53 H161        15.9920   135.3760    -8.2510 hc         1 BNE       0.050200
     54 H162        15.8780   133.6180    -8.3460 hc         1 BNE       0.050200
     55 H181        14.2720   130.4830    -2.6330 ha         1 BNE       0.133000
     56 H211        17.4560   133.2390    -0.1780 ha         1 BNE       0.146000
     57 H221        20.4390   132.8980    -4.1500 ha         1 BNE       0.127000
     58 H251        21.1570   134.2220    -2.2110 ha         1 BNE       0.132000
     59 H291        17.8370   135.6950     0.3560 hc         1 BNE       0.051367
     60 H292        19.1790   136.5890     1.0940 hc         1 BNE       0.051367
     61 H293        19.0180   136.5170    -0.6740 hc         1 BNE       0.051367
     62 H301        21.2550   135.8140    -0.5440 hn         1 BNE       0.406000
     63 H302        21.3570   135.6000     1.0490 hn         1 BNE       0.406000
     64 H321        18.2810   135.0040     2.8180 h4         1 BNE       0.037100
     65 H331        20.0510   131.2420     3.4120 h5         1 BNE       0.055100
     66 H341        21.8300   132.4360     0.4300 h1         1 BNE       0.059700
     67 H342        21.4600   130.9580     1.3600 h1         1 BNE       0.059700
     68 H343        20.4250   131.4220    -0.0200 h1         1 BNE       0.059700
@<TRIPOS>BOND
     1     1     2 1   
     2     1     3 1   
     3     1     4 1   
     4     1     5 1   
     5     2     6 ar  
     6     2     7 ar  
     7     3     8 1   
     8     3     9 2   
     9     4    10 1   
    10     4    36 1   
    11     4    37 1   
    12     5    11 1   
    13     5    38 1   
    14     5    39 1   
    15     6    12 ar  
    16     6    40 1   
    17     7    13 ar  
    18     7    41 1   
    19     8    14 1   
    20     8    15 1   
    21    10    16 1   
    22    10    42 1   
    23    10    43 1   
    24    11    44 1   
    25    11    45 1   
    26    11    46 1   
    27    12    17 1   
    28    12    18 ar  
    29    13    18 ar  
    30    13    47 1   
    31    14    16 1   
    32    14    48 1   
    33    14    49 1   
    34    15    50 1   
    35    15    51 1   
    36    15    52 1   
    37    16    53 1   
    38    16    54 1   
    39    17    19 1   
    40    18    55 1   
    41    19    20 ar  
    42    19    21 ar  
    43    20    22 ar  
    44    20    23 1   
    45    21    24 ar  
    46    21    56 1   
    47    22    25 ar  
    48    22    57 1   
    49    23    26 3   
    50    24    25 ar  
    51    24    27 1   
    52    25    58 1   
    53    27    28 1   
    54    27    29 1   
    55    27    30 1   
    56    28    31 1   
    57    28    32 2   
    58    29    59 1   
    59    29    60 1   
    60    29    61 1   
    61    30    62 1   
    62    30    63 1   
    63    31    33 1   
    64    31    34 1   
    65    32    35 1   
    66    32    64 1   
    67    33    35 2   
    68    33    65 1   
    69    34    66 1   
    70    34    67 1   
    71    34    68 1   
@<TRIPOS>SUBSTRUCTURE
     1 BNE         1 TEMP              0 ****  ****    0 ROOT
