@<TRIPOS>MOLECULE
BNE
   68    71     1     0     0
SMALL
abcg2


@<TRIPOS>ATOM
      1 C1          14.5560   135.4750    -4.5960 c3         1 BNE      -0.067700
      2 C2          14.5030   134.0180    -4.1470 ca         1 BNE      -0.030300
      3 C3          16.0100   135.9920    -4.7630 c          1 BNE       0.564000
      4 C4          13.7920   135.7550    -5.9230 c3         1 BNE      -0.066400
      5 C5          13.8480   136.3220    -3.5000 c3         1 BNE      -0.054400
      6 C6          15.5850   133.4630    -3.4660 ca         1 BNE      -0.174000
      7 C7          13.3530   133.2470    -4.3050 ca         1 BNE      -0.133000
      8 N8          16.8650   135.3160    -5.5660 n          1 BNE      -0.409800
      9 O9          16.3750   137.0130    -4.1730 o          1 BNE      -0.579000
     10 C10         14.0570   134.8470    -7.1230 c3         1 BNE      -0.074400
     11 C11         14.3290   136.1340    -2.0630 c3         1 BNE      -0.087100
     12 C12         15.5340   132.1600    -2.9980 ca         1 BNE       0.123100
     13 C13         13.3050   131.9450    -3.8150 ca         1 BNE      -0.081000
     14 C14         16.4730   134.2910    -6.5410 c3         1 BNE       0.104000
     15 C15         18.2430   135.7890    -5.6590 c3         1 BNE       0.084300
     16 C16         15.5030   134.7960    -7.6040 c3         1 BNE      -0.096400
     17 O17         16.6090   131.5760    -2.3430 os         1 BNE      -0.253200
     18 C18         14.3960   131.3820    -3.1650 ca         1 BNE      -0.124000
     19 C19         17.7820   132.2970    -2.3080 ca         1 BNE       0.132100
     20 C20         18.6620   132.2460    -3.3990 ca         1 BNE      -0.033000
     21 C21         18.0800   133.0680    -1.2050 ca         1 BNE      -0.112000
     22 C22         19.8440   132.9880    -3.3510 ca         1 BNE      -0.070000
     23 C23         18.3320   131.4700    -4.5460 cg         1 BNE       0.332000
     24 C24         19.2550   133.8210    -1.1610 ca         1 BNE      -0.042300
     25 C25         20.1330   133.7680    -2.2420 ca         1 BNE      -0.107000
     26 N26         18.0640   130.8480    -5.4790 n1         1 BNE      -0.448000
     27 C27         19.4990   134.7320     0.0470 c3         1 BNE       0.297800
     28 C28         19.2870   133.9650     1.3280 cc         1 BNE      -0.212300
     29 C29         18.4820   135.8920    -0.0430 c3         1 BNE      -0.118100
     30 N30         20.8860   135.2360     0.0390 n8         1 BNE      -1.002200
     31 N31         19.9780   132.8110     1.6610 na         1 BNE      -0.154500
     32 C32         18.4500   134.2000     2.3900 cd         1 BNE       0.239900
     33 C33         19.5300   132.4170     2.8800 cc         1 BNE       0.396400
     34 C34         20.9590   132.0910     0.8610 c3         1 BNE       0.057900
     35 NZ          18.6080   133.2310     3.3560 nd         1 BNE      -0.675000
     36 H41         14.0050   136.7920    -6.1980 hc         1 BNE       0.048200
     37 H42         12.7240   135.7180    -5.7010 hc         1 BNE       0.048200
     38 H51         12.7880   136.0630    -3.5510 hc         1 BNE       0.046200
     39 H52         13.9340   137.3710    -3.7840 hc         1 BNE       0.046200
     40 H61         16.4780   134.0480    -3.3130 ha         1 BNE       0.131000
     41 H71         12.4870   133.6540    -4.8090 ha         1 BNE       0.117000
     42 H101        13.4180   135.1870    -7.9430 hc         1 BNE       0.045200
     43 H102        13.7350   133.8290    -6.8870 hc         1 BNE       0.045200
     44 H111        15.3990   136.3180    -1.9700 hc         1 BNE       0.037700
     45 H112        13.8070   136.8330    -1.4060 hc         1 BNE       0.037700
     46 H113        14.1260   135.1250    -1.7020 hc         1 BNE       0.037700
     47 H131        12.4060   131.3560    -3.9490 ha         1 BNE       0.118000
     48 H141        16.0570   133.4220    -6.0300 h1         1 BNE       0.057200
     49 H142        17.3950   133.9610    -7.0130 h1         1 BNE       0.057200
     50 H151        18.5260   136.2750    -4.7300 h1         1 BNE       0.041700
     51 H152        18.8940   134.9340    -5.8330 h1         1 BNE       0.041700
     52 H153        18.3690   136.5020    -6.4790 h1         1 BNE       0.041700
     53 H161        15.8320   135.7810    -7.9490 hc         1 BNE       0.050200
     54 H162        15.5630   134.1230    -8.4640 hc         1 BNE       0.050200
     55 H181        14.3750   130.3660    -2.7950 ha         1 BNE       0.133000
     56 H211        17.3760   133.0900    -0.3840 ha         1 BNE       0.146000
     57 H221        20.5290   132.9520    -4.1880 ha         1 BNE       0.127000
     58 H251        21.0560   134.3260    -2.2220 ha         1 BNE       0.132000
     59 H291        17.4520   135.5360    -0.0300 hc         1 BNE       0.051367
     60 H292        18.6300   136.5790     0.7910 hc         1 BNE       0.051367
     61 H293        18.6480   136.4310    -0.9760 hc         1 BNE       0.051367
     62 H301        21.0010   135.9110    -0.7110 hn         1 BNE       0.406000
     63 H302        21.0400   135.7480     0.9020 hn         1 BNE       0.406000
     64 H321        17.7480   135.0080     2.5100 h4         1 BNE       0.037100
     65 H331        19.9170   131.5360     3.3680 h5         1 BNE       0.055100
     66 H341        21.6760   132.7930     0.4440 h1         1 BNE       0.059700
     67 H342        21.4700   131.3810     1.5070 h1         1 BNE       0.059700
     68 H343        20.4710   131.5520     0.0500 h1         1 BNE       0.059700
@<TRIPOS>BOND
     1     1     2 1   
     2     1     3 1   
     3     1     4 1   
     4     1     5 1   
     5     2     6 ar  
     6     2     7 ar  
     7     3     8 1   
     8     3     9 2   
     9     4    10 1   
    10     4    36 1   
    11     4    37 1   
    12     5    11 1   
    13     5    38 1   
    14     5    39 1   
    15     6    12 ar  
    16     6    40 1   
    17     7    13 ar  
    18     7    41 1   
    19     8    14 1   
    20     8    15 1   
    21    10    16 1   
    22    10    42 1   
    23    10    43 1   
    24    11    44 1   
    25    11    45 1   
    26    11    46 1   
    27    12    17 1   
    28    12    18 ar  
    29    13    18 ar  
    30    13    47 1   
    31    14    16 1   
    32    14    48 1   
    33    14    49 1   
    34    15    50 1   
    35    15    51 1   
    36    15    52 1   
    37    16    53 1   
    38    16    54 1   
    39    17    19 1   
    40    18    55 1   
    41    19    20 ar  
    42    19    21 ar  
    43    20    22 ar  
    44    20    23 1   
    45    21    24 ar  
    46    21    56 1   
    47    22    25 ar  
    48    22    57 1   
    49    23    26 3   
    50    24    25 ar  
    51    24    27 1   
    52    25    58 1   
    53    27    28 1   
    54    27    29 1   
    55    27    30 1   
    56    28    31 1   
    57    28    32 2   
    58    29    59 1   
    59    29    60 1   
    60    29    61 1   
    61    30    62 1   
    62    30    63 1   
    63    31    33 1   
    64    31    34 1   
    65    32    35 1   
    66    32    64 1   
    67    33    35 2   
    68    33    65 1   
    69    34    66 1   
    70    34    67 1   
    71    34    68 1   
@<TRIPOS>SUBSTRUCTURE
     1 BNE         1 TEMP              0 ****  ****    0 ROOT
