@<TRIPOS>MOLECULE
BNF
   19    19     1     0     0
SMALL
bcc


@<TRIPOS>ATOM
      1 C1          -1.1850    -0.1510     2.4740 ca         1 BNF      -0.130500
      2 C2           0.0110    -0.2610     3.1700 ca         1 BNF      -0.119000
      3 C3           1.2160    -0.0740     2.5050 ca         1 BNF      -0.130500
      4 C4           1.2220     0.2210     1.1480 ca         1 BNF      -0.114000
      5 C5           0.0280     0.3360     0.4430 ca         1 BNF      -0.116300
      6 C6          -1.1760     0.1480     1.1180 ca         1 BNF      -0.114000
      7 C12          0.0330     0.6260    -1.0320 c3         1 BNF       0.146300
      8 N13         -0.1240    -0.6090    -1.7830 ns         1 BNF      -0.585900
      9 C14         -0.0770    -0.6540    -3.1170 c          1 BNF       0.661900
     10 O16          0.1120     0.3100    -3.8410 o          1 BNF      -0.607100
     11 H1          -2.1270    -0.2940     2.9870 ha         1 BNF       0.133500
     12 H2           0.0050    -0.4880     4.2290 ha         1 BNF       0.132000
     13 H3           2.1510    -0.1570     3.0430 ha         1 BNF       0.133500
     14 H4           2.1640     0.3690     0.6340 ha         1 BNF       0.134000
     15 H6          -2.1120     0.2420     0.5810 ha         1 BNF       0.134000
     16 H121         0.9690     1.1100    -1.3180 h1         1 BNF       0.058200
     17 H122        -0.7750     1.3180    -1.2820 h1         1 BNF       0.058200
     18 H13         -0.3140    -1.4620    -1.2820 hn         1 BNF       0.318500
     19 H14         -0.2260    -1.6730    -3.5060 h5         1 BNF       0.007200
@<TRIPOS>BOND
     1     1     2 ar  
     2     1     6 ar  
     3     1    11 1   
     4     2     3 ar  
     5     2    12 1   
     6     3     4 ar  
     7     3    13 1   
     8     4     5 ar  
     9     4    14 1   
    10     5     6 ar  
    11     5     7 1   
    12     6    15 1   
    13     7     8 1   
    14     7    16 1   
    15     7    17 1   
    16     8     9 1   
    17     8    18 1   
    18     9    10 2   
    19     9    19 1   
@<TRIPOS>SUBSTRUCTURE
     1 BNF         1 TEMP              0 ****  ****    0 ROOT
