@<TRIPOS>MOLECULE
BNF
   19    19     1     0     0
SMALL
No Charge or Current Charge


@<TRIPOS>ATOM
      1 C1          -1.2100    -0.0790     2.5340 ca         1 BNF      -0.112500
      2 C2           0.0080    -0.2420     3.2150 ca         1 BNF      -0.101000
      3 C3           1.2220    -0.1260     2.5160 ca         1 BNF      -0.112500
      4 C4           1.2170     0.1550     1.1380 ca         1 BNF      -0.096000
      5 C5          -0.0020     0.3210     0.4520 ca         1 BNF      -0.116300
      6 C6          -1.2160     0.2020     1.1570 ca         1 BNF      -0.096000
      7 C12         -0.0070     0.6210    -1.0390 c3         1 BNF       0.146300
      8 N13         -0.0380    -0.6110    -1.8230 ns         1 BNF      -0.518900
      9 C14         -0.0490    -0.6570    -3.1970 c          1 BNF       0.594900
     10 O16         -0.0350     0.3510    -3.8930 o          1 BNF      -0.607100
     11 H1          -2.1510    -0.1700     3.0740 ha         1 BNF       0.115500
     12 H2           0.0120    -0.4590     4.2810 ha         1 BNF       0.114000
     13 H3           2.1660    -0.2530     3.0420 ha         1 BNF       0.115500
     14 H4           2.1610     0.2410     0.6040 ha         1 BNF       0.116000
     15 H6          -2.1640     0.3240     0.6370 ha         1 BNF       0.116000
     16 H121         0.8910     1.1940    -1.3070 h1         1 BNF       0.058200
     17 H122        -0.8860     1.2300    -1.2930 h1         1 BNF       0.058200
     18 H13         -0.0520    -1.4970    -1.3320 hn         1 BNF       0.318500
     19 H14         -0.0730    -1.6890    -3.5940 h5         1 BNF       0.007200
@<TRIPOS>BOND
     1     1     2 ar  
     2     1     6 ar  
     3     1    11 1   
     4     2     3 ar  
     5     2    12 1   
     6     3     4 ar  
     7     3    13 1   
     8     4     5 ar  
     9     4    14 1   
    10     5     6 ar  
    11     5     7 1   
    12     6    15 1   
    13     7     8 1   
    14     7    16 1   
    15     7    17 1   
    16     8     9 1   
    17     8    18 1   
    18     9    10 2   
    19     9    19 1   
@<TRIPOS>SUBSTRUCTURE
     1 BNF         1 TEMP              0 ****  ****    0 ROOT
