@<TRIPOS>MOLECULE
BNG
   51    51     1     0     0
SMALL
bcc


@<TRIPOS>ATOM
      1 C1          98.2860    10.4640    31.7100 c6         1 BNG       0.352900
      2 C2          98.2000     9.3950    32.7910 c6         1 BNG       0.130100
      3 C3          98.0940     8.0320    32.1180 c6         1 BNG       0.106100
      4 C4          96.9500     7.9940    31.1100 c6         1 BNG       0.080100
      5 C5          97.0960     9.1690    30.1360 c6         1 BNG       0.130100
      6 C6          95.9300     9.2740    29.1770 c3         1 BNG       0.147400
      7 C11         98.4720    14.0870    32.0710 c3         1 BNG      -0.073400
      8 C12         96.9790    14.3940    32.0930 c3         1 BNG      -0.073400
      9 C13         96.6740    15.8030    32.5850 c3         1 BNG      -0.075400
     10 C14         95.1870    16.1370    32.5740 c3         1 BNG      -0.073400
     11 C15         94.8870    17.5550    33.0420 c3         1 BNG      -0.075400
     12 C7          93.4040    17.9030    33.0080 c3         1 BNG      -0.075400
     13 C8          93.1080    19.3250    33.4680 c3         1 BNG      -0.075400
     14 C9          91.6250    19.6690    33.4170 c3         1 BNG      -0.088100
     15 O1          98.2860    11.7110    32.2860 os         1 BNG      -0.381600
     16 O2          99.3460     9.4900    33.5960 oh         1 BNG      -0.580800
     17 O3          97.9360     7.0730    33.1350 oh         1 BNG      -0.601800
     18 O4          97.0190     6.7480    30.4550 oh         1 BNG      -0.600800
     19 O5          97.1600    10.3720    30.8720 os         1 BNG      -0.425600
     20 O6          96.1830    10.3170    28.2670 oh         1 BNG      -0.582800
     21 H1          99.2040    10.2990    31.1120 h2         1 BNG       0.031700
     22 H2          97.2820     9.5710    33.3760 h1         1 BNG       0.066700
     23 H3          99.0320     7.8590    31.5630 h1         1 BNG       0.052700
     24 H4          96.0000     8.1040    31.6540 h1         1 BNG       0.057700
     25 H5          98.0220     9.0280    29.5530 h1         1 BNG       0.060700
     26 H61         95.8140     8.3120    28.6650 h1         1 BNG       0.025200
     27 H62         95.0100     9.4470    29.7530 h1         1 BNG       0.025200
     28 H1'1        98.3980    12.6850    30.4510 h1         1 BNG       0.034200
     29 H1'2        99.9000    12.6260    31.3790 h1         1 BNG       0.034200
     30 H2'1        98.8860    14.1540    33.0820 hc         1 BNG       0.046200
     31 H2'2        98.9900    14.8480    31.4800 hc         1 BNG       0.046200
     32 H3'1        96.5750    14.2690    31.0810 hc         1 BNG       0.047200
     33 H3'2        96.4550    13.6690    32.7220 hc         1 BNG       0.047200
     34 H4'1        97.0670    15.9290    33.6000 hc         1 BNG       0.035200
     35 H4'2        97.2100    16.5270    31.9620 hc         1 BNG       0.035200
     36 H5'1        94.7950    15.9980    31.5610 hc         1 BNG       0.037700
     37 H5'2        94.6490    15.4230    33.2070 hc         1 BNG       0.037700
     38 H6'1        95.2680    17.6910    34.0600 hc         1 BNG       0.036200
     39 H6'2        95.4390    18.2650    32.4160 hc         1 BNG       0.036200
     40 H7'1        93.0240    17.7660    31.9890 hc         1 BNG       0.037200
     41 H7'2        92.8500    17.1960    33.6340 hc         1 BNG       0.037200
     42 H8'1        93.4810    19.4600    34.4880 hc         1 BNG       0.036200
     43 H8'2        93.6680    20.0300    32.8460 hc         1 BNG       0.036200
     44 H9'1        91.4380    20.6900    33.7510 hc         1 BNG       0.030700
     45 H9'2        91.2350    19.5760    32.4030 hc         1 BNG       0.030700
     46 H9'3        91.0430    19.0010    34.0550 hc         1 BNG       0.030700
     47 HO2         99.3430     8.7430    34.2050 ho         1 BNG       0.422000
     48 HO3         97.9930     6.1980    32.7360 ho         1 BNG       0.424000
     49 HO4         96.1350     6.4770    30.1920 ho         1 BNG       0.412000
     50 HO6         95.4350    10.3780    27.6660 ho         1 BNG       0.406000
     51 C10         98.8130    12.7430    31.4640 c3         1 BNG       0.140400
@<TRIPOS>BOND
     1     1     2 1   
     2     1    15 1   
     3     1    19 1   
     4     1    21 1   
     5     2     3 1   
     6     2    16 1   
     7     2    22 1   
     8     3     4 1   
     9     3    17 1   
    10     3    23 1   
    11     4     5 1   
    12     4    18 1   
    13     4    24 1   
    14     5     6 1   
    15     5    19 1   
    16     5    25 1   
    17     6    20 1   
    18     6    26 1   
    19     6    27 1   
    20     7     8 1   
    21     7    30 1   
    22     7    31 1   
    23     7    51 1   
    24     8     9 1   
    25     8    32 1   
    26     8    33 1   
    27     9    10 1   
    28     9    34 1   
    29     9    35 1   
    30    10    11 1   
    31    10    36 1   
    32    10    37 1   
    33    11    12 1   
    34    11    38 1   
    35    11    39 1   
    36    12    13 1   
    37    12    40 1   
    38    12    41 1   
    39    13    14 1   
    40    13    42 1   
    41    13    43 1   
    42    14    44 1   
    43    14    45 1   
    44    14    46 1   
    45    15    51 1   
    46    16    47 1   
    47    17    48 1   
    48    18    49 1   
    49    20    50 1   
    50    28    51 1   
    51    29    51 1   
@<TRIPOS>SUBSTRUCTURE
     1 BNG         1 TEMP              0 ****  ****    0 ROOT
