@<TRIPOS>MOLECULE
BNG
   51    51     1     0     0
SMALL
No Charge or Current Charge


@<TRIPOS>ATOM
      1 C1          98.2200    10.4320    31.6800 c6         1 BNG       0.399300
      2 C2          97.8320     9.4910    32.8730 c6         1 BNG       0.153300
      3 C3          97.9650     8.0140    32.4050 c6         1 BNG       0.129300
      4 C4          97.1050     7.7630    31.1290 c6         1 BNG       0.103300
      5 C5          97.5120     8.7980    30.0270 c6         1 BNG       0.153300
      6 C6          96.6440     8.6820    28.7290 c3         1 BNG       0.170600
      7 C11         98.2880    14.1900    31.6410 c3         1 BNG      -0.073400
      8 C12         96.7950    14.5450    31.8410 c3         1 BNG      -0.073400
      9 C13         96.5810    15.9780    32.3760 c3         1 BNG      -0.075400
     10 C14         95.0910    16.3320    32.5760 c3         1 BNG      -0.073400
     11 C15         94.8770    17.7650    33.1110 c3         1 BNG      -0.075400
     12 C7          93.3870    18.1190    33.3110 c3         1 BNG      -0.075400
     13 C8          93.1730    19.5520    33.8460 c3         1 BNG      -0.075400
     14 C9          91.6870    19.9060    34.0450 c3         1 BNG      -0.088100
     15 O1          98.0630    11.8170    32.0370 os         1 BNG      -0.428000
     16 O2          98.6350     9.6970    34.0600 oh         1 BNG      -0.703000
     17 O3          97.5760     7.1080    33.4530 oh         1 BNG      -0.664000
     18 O4          97.2790     6.3960    30.6920 oh         1 BNG      -0.723000
     19 O5          97.3710    10.1460    30.5490 os         1 BNG      -0.472000
     20 O6          96.9790     9.6650    27.7290 oh         1 BNG      -0.705000
     21 H1          99.2700    10.2500    31.4050 h2         1 BNG       0.031700
     22 H2          96.7740     9.6790    33.1070 h1         1 BNG       0.066700
     23 H3          99.0180     7.8350    32.1380 h1         1 BNG       0.052700
     24 H4          96.0500     7.9410    31.3890 h1         1 BNG       0.057700
     25 H5          98.5640     8.6370    29.7470 h1         1 BNG       0.060700
     26 H61         96.7760     7.6750    28.3130 h1         1 BNG       0.025200
     27 H62         95.5880     8.7830    29.0140 h1         1 BNG       0.025200
     28 H1'1        97.9860    12.6700    30.1200 h1         1 BNG       0.034200
     29 H1'2        99.5960    12.6380    30.8770 h1         1 BNG       0.034200
     30 H2'1        98.8200    14.2860    32.5960 hc         1 BNG       0.046200
     31 H2'2        98.7390    14.9180    30.9550 hc         1 BNG       0.046200
     32 H3'1        96.2690    14.4350    30.8840 hc         1 BNG       0.047200
     33 H3'2        96.3410    13.8300    32.5390 hc         1 BNG       0.047200
     34 H4'1        97.1080    16.0870    33.3330 hc         1 BNG       0.035200
     35 H4'2        97.0310    16.6940    31.6780 hc         1 BNG       0.035200
     36 H5'1        94.5640    16.2220    31.6200 hc         1 BNG       0.037700
     37 H5'2        94.6410    15.6160    33.2740 hc         1 BNG       0.037700
     38 H6'1        95.4050    17.8740    34.0670 hc         1 BNG       0.036200
     39 H6'2        95.3280    18.4810    32.4130 hc         1 BNG       0.036200
     40 H7'1        92.8600    18.0100    32.3550 hc         1 BNG       0.037200
     41 H7'2        92.9370    17.4030    34.0090 hc         1 BNG       0.037200
     42 H8'1        93.6980    19.6650    34.8030 hc         1 BNG       0.036200
     43 H8'2        93.6210    20.2720    33.1490 hc         1 BNG       0.036200
     44 H9'1        91.5860    20.9300    34.4260 hc         1 BNG       0.030700
     45 H9'2        91.1410    19.8370    33.0970 hc         1 BNG       0.030700
     46 H9'3        91.2190    19.2250    34.7660 hc         1 BNG       0.030700
     47 HO2         98.5170     8.8680    34.5850 ho         1 BNG       0.521000
     48 HO3         97.4370     6.2440    33.0000 ho         1 BNG       0.463000
     49 HO4         96.4760     6.1390    30.1790 ho         1 BNG       0.511000
     50 HO6         96.3310     9.5600    26.9940 ho         1 BNG       0.505000
     51 C10         98.5240    12.7760    31.0720 c3         1 BNG       0.163600
@<TRIPOS>BOND
     1     1     2 1   
     2     1    15 1   
     3     1    19 1   
     4     1    21 1   
     5     2     3 1   
     6     2    16 1   
     7     2    22 1   
     8     3     4 1   
     9     3    17 1   
    10     3    23 1   
    11     4     5 1   
    12     4    18 1   
    13     4    24 1   
    14     5     6 1   
    15     5    19 1   
    16     5    25 1   
    17     6    20 1   
    18     6    26 1   
    19     6    27 1   
    20     7     8 1   
    21     7    30 1   
    22     7    31 1   
    23     7    51 1   
    24     8     9 1   
    25     8    32 1   
    26     8    33 1   
    27     9    10 1   
    28     9    34 1   
    29     9    35 1   
    30    10    11 1   
    31    10    36 1   
    32    10    37 1   
    33    11    12 1   
    34    11    38 1   
    35    11    39 1   
    36    12    13 1   
    37    12    40 1   
    38    12    41 1   
    39    13    14 1   
    40    13    42 1   
    41    13    43 1   
    42    14    44 1   
    43    14    45 1   
    44    14    46 1   
    45    15    51 1   
    46    16    47 1   
    47    17    48 1   
    48    18    49 1   
    49    20    50 1   
    50    28    51 1   
    51    29    51 1   
@<TRIPOS>SUBSTRUCTURE
     1 BNG         1 TEMP              0 ****  ****    0 ROOT
