@<TRIPOS>MOLECULE
BNH
  100   103     1     0     0
SMALL
No Charge or Current Charge


@<TRIPOS>ATOM
      1 C1         191.3730   -11.5330    48.5440 c          1 BNH       0.639100
      2 O2         192.5460   -11.8300    48.3880 o          1 BNH      -0.544000
      3 O3         190.4050   -12.3230    49.0880 os         1 BNH      -0.463100
      4 C4         190.7800   -13.5940    49.6600 c3         1 BNH       0.183600
      5 C5         191.0240   -13.4320    51.1890 c3         1 BNH      -0.086700
      6 C6         191.2390   -14.8110    51.8560 c3         1 BNH      -0.090600
      7 C7         192.1820   -12.4670    51.5480 c3         1 BNH      -0.090600
      8 N8         190.8260   -10.3270    48.2150 ns         1 BNH      -0.480900
      9 C9         191.6020    -9.1850    47.6910 c3         1 BNH       0.050700
     10 C10        190.7010    -8.2370    46.8290 c6         1 BNH      -0.066700
     11 C11        191.4710    -6.9760    46.3310 c6         1 BNH      -0.075400
     12 C12        190.0680    -8.9860    45.6160 c6         1 BNH      -0.075400
     13 C13        190.5690    -6.0470    45.4810 c6         1 BNH      -0.073400
     14 C14        189.1690    -8.0530    44.7670 c6         1 BNH      -0.073400
     15 C15        189.9500    -6.8080    44.2850 c6         1 BNH      -0.076400
     16 C16        192.3070    -8.4700    48.8810 c          1 BNH       0.583100
     17 O17        191.7720    -8.2940    49.9700 o          1 BNH      -0.621100
     18 N18        193.5950    -8.0460    48.6250 ns         1 BNH      -0.485900
     19 C19        194.4860    -7.3820    49.6030 c3         1 BNH       0.038700
     20 C20        195.3030    -6.2670    48.8930 c          1 BNH       0.571100
     21 O21        195.4150    -6.1930    47.6750 o          1 BNH      -0.577100
     22 C22        195.4210    -8.4060    50.3010 c3         1 BNH      -0.051400
     23 C23        194.6870    -9.4900    51.0890 cx         1 BNH      -0.121700
     24 C24        194.1460    -9.2140    52.4720 cx         1 BNH      -0.135400
     25 C25        195.3220   -10.1480    52.2910 cx         1 BNH      -0.135400
     26 N26        195.9010    -5.3510    49.7360 ns         1 BNH      -0.493900
     27 C27        196.6570    -4.1550    49.2920 c3         1 BNH       0.026700
     28 C28        195.7590    -2.8900    49.2510 c3         1 BNH      -0.053400
     29 C29        194.5780    -2.9960    48.2860 cx         1 BNH      -0.122700
     30 C30        193.3850    -2.0800    48.4210 cx         1 BNH      -0.134400
     31 C31        193.2440    -3.5530    48.7280 cx         1 BNH      -0.134400
     32 C33        197.9060    -3.9440    50.1920 c          1 BNH       0.498100
     33 O34        199.0880    -2.6350    48.4300 o          1 BNH      -0.576100
     34 C35        199.1360    -3.1630    49.5380 c          1 BNH       0.509100
     35 N36        200.2840    -3.1300    50.3140 ns         1 BNH      -0.460900
     36 C37        201.5600    -2.5020    49.9070 c3         1 BNH       0.009000
     37 C38        202.7170    -2.8750    50.8630 c          1 BNH       0.578100
     38 O39        202.5620    -3.5710    51.8600 o          1 BNH      -0.622100
     39 N40        203.9460    -2.3610    50.5090 ns         1 BNH      -0.463900
     40 C41        205.2170    -2.6200    51.2290 c3         1 BNH      -0.016000
     41 C42        205.7520    -4.0210    50.9290 ca         1 BNH      -0.023300
     42 C43        206.0810    -4.3960    49.6080 ca         1 BNH      -0.088500
     43 C44        205.9110    -4.9580    51.9710 ca         1 BNH      -0.088500
     44 C45        206.5660    -5.6880    49.3360 ca         1 BNH      -0.123000
     45 C46        206.3950    -6.2510    51.6980 ca         1 BNH      -0.123000
     46 C47        206.7240    -6.6150    50.3810 ca         1 BNH      -0.141000
     47 C48        206.2840    -1.5240    50.9120 c          1 BNH       0.727000
     48 O49        206.2570    -0.9770    49.8150 o          1 BNH      -0.711000
     49 O50        207.0940    -1.2410    51.7850 o          1 BNH      -0.711000
     50 H41A       191.6630   -14.0250    49.1700 h1         1 BNH       0.060700
     51 H42        189.9570   -14.3070    49.5220 h1         1 BNH       0.060700
     52 H5         190.1070   -13.0110    51.6190 hc         1 BNH       0.054700
     53 H61        191.3360   -14.7070    52.9430 hc         1 BNH       0.038033
     54 H62        192.1480   -15.2920    51.4740 hc         1 BNH       0.038033
     55 H63        190.3900   -15.4760    51.6570 hc         1 BNH       0.038033
     56 H71        191.9600   -11.4450    51.2200 hc         1 BNH       0.038033
     57 H72        193.1210   -12.7880    51.0800 hc         1 BNH       0.038033
     58 H73        192.3370   -12.4340    52.6330 hc         1 BNH       0.038033
     59 HN8        189.8450   -10.2080    48.4320 hn         1 BNH       0.331500
     60 H9         192.3910    -9.5810    47.0370 h1         1 BNH       0.083700
     61 H10        189.8890    -7.8990    47.4900 hc         1 BNH       0.059700
     62 H111       192.3460    -7.2800    45.7390 hc         1 BNH       0.047700
     63 H112       191.8560    -6.3990    47.1830 hc         1 BNH       0.047700
     64 H121       189.4670    -9.8390    45.9600 hc         1 BNH       0.047700
     65 H122       190.8620    -9.4050    44.9820 hc         1 BNH       0.047700
     66 H131       191.1550    -5.1920    45.1160 hc         1 BNH       0.040200
     67 H132       189.7690    -5.6320    46.1100 hc         1 BNH       0.040200
     68 H141       188.2980    -7.7380    45.3600 hc         1 BNH       0.040200
     69 H142       188.7740    -8.6020    43.9010 hc         1 BNH       0.040200
     70 H151       190.7430    -7.1140    43.5880 hc         1 BNH       0.043700
     71 H152       189.2810    -6.1410    43.7240 hc         1 BNH       0.043700
     72 H18        193.9510    -8.1950    47.6870 hn         1 BNH       0.332500
     73 H19        193.8720    -6.8850    50.3650 h1         1 BNH       0.084700
     74 H221       196.1010    -7.8660    50.9720 hc         1 BNH       0.066200
     75 H222       196.0580    -8.8800    49.5430 hc         1 BNH       0.066200
     76 H23        194.0910   -10.1390    50.4500 hc         1 BNH       0.093700
     77 H241       193.1850    -9.6500    52.7340 hc         1 BNH       0.068200
     78 H242       194.3370    -8.2380    52.9110 hc         1 BNH       0.068200
     79 H251       196.3000    -9.7970    52.6120 hc         1 BNH       0.068200
     80 H252       195.1500   -11.2120    52.4350 hc         1 BNH       0.068200
     81 H26        195.7780    -5.4960    50.7330 hn         1 BNH       0.328500
     82 H27        197.0410    -4.3360    48.2790 h1         1 BNH       0.109700
     83 H281       196.3710    -2.0280    48.9580 hc         1 BNH       0.060200
     84 H282       195.3980    -2.6760    50.2650 hc         1 BNH       0.060200
     85 H29        194.8930    -3.2320    47.2710 hc         1 BNH       0.087700
     86 H301       192.9270    -1.7060    47.5080 hc         1 BNH       0.070450
     87 H302       193.3620    -1.3850    49.2580 hc         1 BNH       0.070450
     88 H311       193.1300    -3.8470    49.7690 hc         1 BNH       0.070450
     89 H312       192.6950    -4.1690    48.0190 hc         1 BNH       0.070450
     90 H36        200.2430    -3.5990    51.2170 hn         1 BNH       0.335500
     91 H371       201.4470    -1.4100    49.9030 h1         1 BNH       0.060700
     92 H372       201.8260    -2.8330    48.8940 h1         1 BNH       0.060700
     93 H40        203.9820    -1.7770    49.6790 hn         1 BNH       0.343500
     94 H41        205.0090    -2.5430    52.3040 h1         1 BNH       0.058700
     95 H43        205.9600    -3.6860    48.7920 ha         1 BNH       0.114000
     96 H44        205.6550    -4.6870    52.9940 ha         1 BNH       0.114000
     97 H45        206.8190    -5.9690    48.3150 ha         1 BNH       0.088000
     98 H46        206.5150    -6.9690    52.5080 ha         1 BNH       0.088000
     99 H47        207.0980    -7.6150    50.1700 ha         1 BNH       0.084000
    100 O32        197.9640    -4.3810    51.3440 o          1 BNH      -0.508100
@<TRIPOS>BOND
     1     1     2 2   
     2     1     3 1   
     3     1     8 1   
     4     3     4 1   
     5     4     5 1   
     6     4    50 1   
     7     4    51 1   
     8     5     6 1   
     9     5     7 1   
    10     5    52 1   
    11     6    53 1   
    12     6    54 1   
    13     6    55 1   
    14     7    56 1   
    15     7    57 1   
    16     7    58 1   
    17     8     9 1   
    18     8    59 1   
    19     9    10 1   
    20     9    16 1   
    21     9    60 1   
    22    10    11 1   
    23    10    12 1   
    24    10    61 1   
    25    11    13 1   
    26    11    62 1   
    27    11    63 1   
    28    12    14 1   
    29    12    64 1   
    30    12    65 1   
    31    13    15 1   
    32    13    66 1   
    33    13    67 1   
    34    14    15 1   
    35    14    68 1   
    36    14    69 1   
    37    15    70 1   
    38    15    71 1   
    39    16    17 2   
    40    16    18 1   
    41    18    19 1   
    42    18    72 1   
    43    19    20 1   
    44    19    22 1   
    45    19    73 1   
    46    20    21 2   
    47    20    26 1   
    48    22    23 1   
    49    22    74 1   
    50    22    75 1   
    51    23    24 1   
    52    23    25 1   
    53    23    76 1   
    54    24    25 1   
    55    24    77 1   
    56    24    78 1   
    57    25    79 1   
    58    25    80 1   
    59    26    27 1   
    60    26    81 1   
    61    27    28 1   
    62    27    32 1   
    63    27    82 1   
    64    28    29 1   
    65    28    83 1   
    66    28    84 1   
    67    29    30 1   
    68    29    31 1   
    69    29    85 1   
    70    30    31 1   
    71    30    86 1   
    72    30    87 1   
    73    31    88 1   
    74    31    89 1   
    75    32    34 1   
    76    32   100 2   
    77    33    34 2   
    78    34    35 1   
    79    35    36 1   
    80    35    90 1   
    81    36    37 1   
    82    36    91 1   
    83    36    92 1   
    84    37    38 2   
    85    37    39 1   
    86    39    40 1   
    87    39    93 1   
    88    40    41 1   
    89    40    47 1   
    90    40    94 1   
    91    41    42 ar  
    92    41    43 ar  
    93    42    44 ar  
    94    42    95 1   
    95    43    45 ar  
    96    43    96 1   
    97    44    46 ar  
    98    44    97 1   
    99    45    46 ar  
   100    45    98 1   
   101    46    99 1   
   102    47    48 1   
   103    47    49 1   
@<TRIPOS>SUBSTRUCTURE
     1 BNH         1 TEMP              0 ****  ****    0 ROOT
