@<TRIPOS>MOLECULE
BNH
  100   103     1     0     0
SMALL
abcg2


@<TRIPOS>ATOM
      1 C1         192.2400   -10.9460    48.6510 c          1 BNH       0.639100
      2 O2         193.1330   -11.4460    49.3030 o          1 BNH      -0.544000
      3 O3         190.9980   -11.4270    48.5560 os         1 BNH      -0.463100
      4 C4         190.6000   -12.5020    49.4080 c3         1 BNH       0.183600
      5 C5         189.8120   -12.0080    50.6140 c3         1 BNH      -0.086700
      6 C6         189.3230   -13.2220    51.4000 c3         1 BNH      -0.090600
      7 C7         190.6190   -11.0740    51.5080 c3         1 BNH      -0.090600
      8 N8         192.3830    -9.8360    47.8960 ns         1 BNH      -0.480900
      9 C9         193.5780    -9.0330    47.9890 c3         1 BNH       0.050700
     10 C10        193.6230    -8.0140    46.8430 c6         1 BNH      -0.066700
     11 C11        194.8190    -7.0690    46.9750 c6         1 BNH      -0.075400
     12 C12        193.6650    -8.7210    45.4860 c6         1 BNH      -0.075400
     13 C13        194.8670    -6.0690    45.8240 c6         1 BNH      -0.073400
     14 C14        193.7110    -7.7230    44.3340 c6         1 BNH      -0.073400
     15 C15        194.8930    -6.7700    44.4710 c6         1 BNH      -0.076400
     16 C16        193.5970    -8.3080    49.3370 c          1 BNH       0.583100
     17 O17        192.6380    -7.6460    49.7040 o          1 BNH      -0.621100
     18 N18        194.7290    -8.4490    50.0450 ns         1 BNH      -0.485900
     19 C19        194.9970    -7.7720    51.2970 c3         1 BNH       0.038700
     20 C20        196.0340    -6.6890    51.0110 c          1 BNH       0.571100
     21 O21        197.2340    -6.9220    50.9860 o          1 BNH      -0.577100
     22 C22        195.4610    -8.7530    52.3670 c3         1 BNH      -0.051400
     23 C23        194.3830    -9.7460    52.7130 cx         1 BNH      -0.121700
     24 C24        193.2900    -9.3390    53.6530 cx         1 BNH      -0.135400
     25 C25        194.3250   -10.3340    54.0880 cx         1 BNH      -0.135400
     26 N26        195.5340    -5.4770    50.7290 ns         1 BNH      -0.493900
     27 C27        196.4000    -4.4090    50.3060 c3         1 BNH       0.026700
     28 C28        195.5880    -3.1750    49.8880 c3         1 BNH      -0.053400
     29 C29        194.7620    -3.4290    48.6540 cx         1 BNH      -0.122700
     30 C30        193.6330    -2.5090    48.3110 cx         1 BNH      -0.134400
     31 C31        193.3450    -3.9130    48.7470 cx         1 BNH      -0.134400
     32 C33        197.3510    -4.0280    51.4250 c          1 BNH       0.498100
     33 O34        198.9510    -3.2730    49.8030 o          1 BNH      -0.576100
     34 C35        198.7060    -3.4590    50.9840 c          1 BNH       0.509100
     35 N36        199.5480    -3.1980    51.9820 ns         1 BNH      -0.460900
     36 C37        200.8810    -2.7370    51.7170 c3         1 BNH       0.009000
     37 C38        201.7070    -3.7900    50.9780 c          1 BNH       0.578100
     38 O39        201.4890    -4.9840    51.1090 o          1 BNH      -0.622100
     39 N40        202.6880    -3.2840    50.2270 ns         1 BNH      -0.463900
     40 C41        203.6160    -4.0810    49.4690 c3         1 BNH      -0.016000
     41 C42        202.9600    -4.8010    48.3150 ca         1 BNH      -0.023300
     42 C43        201.9240    -4.2100    47.5960 ca         1 BNH      -0.088500
     43 C44        203.4150    -6.0560    47.9200 ca         1 BNH      -0.088500
     44 C45        201.3550    -4.8600    46.5090 ca         1 BNH      -0.123000
     45 C46        202.8490    -6.7080    46.8330 ca         1 BNH      -0.123000
     46 C47        201.8160    -6.1110    46.1210 ca         1 BNH      -0.141000
     47 C48        204.7480    -3.1570    48.9110 c          1 BNH       0.727000
     48 O49        204.5830    -1.9330    49.0580 o          1 BNH      -0.711000
     49 O50        205.6880    -3.7490    48.3640 o          1 BNH      -0.711000
     50 H41A       191.4660   -13.0840    49.7290 h1         1 BNH       0.060700
     51 H42        189.9720   -13.1480    48.7920 h1         1 BNH       0.060700
     52 H5         188.9350   -11.4630    50.2460 hc         1 BNH       0.054700
     53 H61        188.7020   -12.9120    52.2420 hc         1 BNH       0.038033
     54 H62        190.1630   -13.7920    51.8020 hc         1 BNH       0.038033
     55 H63        188.7290   -13.8950    50.7790 hc         1 BNH       0.038033
     56 H71        190.9090   -10.1530    51.0000 hc         1 BNH       0.038033
     57 H72        191.5270   -11.5610    51.8700 hc         1 BNH       0.038033
     58 H73        190.0310   -10.7830    52.3800 hc         1 BNH       0.038033
     59 HN8        191.5540    -9.4060    47.5140 hn         1 BNH       0.331500
     60 H9         194.4500    -9.6870    47.8950 h1         1 BNH       0.083700
     61 H10        192.7080    -7.4090    46.8940 hc         1 BNH       0.059700
     62 H111       195.7440    -7.6570    46.9900 hc         1 BNH       0.047700
     63 H112       194.7830    -6.5190    47.9190 hc         1 BNH       0.047700
     64 H121       192.8040    -9.3820    45.3680 hc         1 BNH       0.047700
     65 H122       194.5570    -9.3580    45.4490 hc         1 BNH       0.047700
     66 H131       195.7380    -5.4200    45.9370 hc         1 BNH       0.040200
     67 H132       193.9850    -5.4210    45.8810 hc         1 BNH       0.040200
     68 H141       192.7800    -7.1470    44.3170 hc         1 BNH       0.040200
     69 H142       193.7620    -8.2590    43.3840 hc         1 BNH       0.040200
     70 H151       195.8260    -7.3360    44.3770 hc         1 BNH       0.043700
     71 H152       194.8890    -6.0370    43.6610 hc         1 BNH       0.043700
     72 H18        195.4620    -9.0310    49.6700 hn         1 BNH       0.332500
     73 H19        194.0620    -7.3120    51.6210 h1         1 BNH       0.084700
     74 H221       195.7390    -8.1860    53.2610 hc         1 BNH       0.066200
     75 H222       196.3660    -9.2680    52.0320 hc         1 BNH       0.066200
     76 H23        194.0910   -10.4060    51.9030 hc         1 BNH       0.093700
     77 H241       192.2850    -9.6930    53.4630 hc         1 BNH       0.068200
     78 H242       193.3370    -8.3420    54.0770 hc         1 BNH       0.068200
     79 H251       195.0660   -10.0100    54.8090 hc         1 BNH       0.068200
     80 H252       194.0280   -11.3700    54.1930 hc         1 BNH       0.068200
     81 H26        194.5420    -5.3150    50.7910 hn         1 BNH       0.328500
     82 H27        196.9870    -4.7340    49.4440 h1         1 BNH       0.109700
     83 H281       196.2860    -2.3580    49.6930 hc         1 BNH       0.060200
     84 H282       194.9540    -2.8530    50.7190 hc         1 BNH       0.060200
     85 H29        195.3350    -3.8060    47.8120 hc         1 BNH       0.087700
     86 H301       193.4830    -2.2500    47.2700 hc         1 BNH       0.070450
     87 H302       193.4070    -1.7090    49.0060 hc         1 BNH       0.070450
     88 H311       192.9100    -4.0500    49.7310 hc         1 BNH       0.070450
     89 H312       192.9980    -4.6250    48.0080 hc         1 BNH       0.070450
     90 H36        199.2730    -3.4110    52.9280 hn         1 BNH       0.335500
     91 H371       201.3600    -2.5280    52.6740 h1         1 BNH       0.060700
     92 H372       200.8600    -1.7990    51.1580 h1         1 BNH       0.060700
     93 H40        202.8290    -2.2860    50.1440 hn         1 BNH       0.343500
     94 H41        204.0860    -4.8240    50.1220 h1         1 BNH       0.058700
     95 H43        201.5470    -3.2380    47.8900 ha         1 BNH       0.114000
     96 H44        204.2110    -6.5340    48.4770 ha         1 BNH       0.114000
     97 H45        200.5480    -4.3870    45.9640 ha         1 BNH       0.088000
     98 H46        203.2120    -7.6860    46.5440 ha         1 BNH       0.088000
     99 H47        201.3700    -6.6200    45.2760 ha         1 BNH       0.084000
    100 O32        197.0770    -4.1290    52.5920 o          1 BNH      -0.508100
@<TRIPOS>BOND
     1     1     2 2   
     2     1     3 1   
     3     1     8 1   
     4     3     4 1   
     5     4     5 1   
     6     4    50 1   
     7     4    51 1   
     8     5     6 1   
     9     5     7 1   
    10     5    52 1   
    11     6    53 1   
    12     6    54 1   
    13     6    55 1   
    14     7    56 1   
    15     7    57 1   
    16     7    58 1   
    17     8     9 1   
    18     8    59 1   
    19     9    10 1   
    20     9    16 1   
    21     9    60 1   
    22    10    11 1   
    23    10    12 1   
    24    10    61 1   
    25    11    13 1   
    26    11    62 1   
    27    11    63 1   
    28    12    14 1   
    29    12    64 1   
    30    12    65 1   
    31    13    15 1   
    32    13    66 1   
    33    13    67 1   
    34    14    15 1   
    35    14    68 1   
    36    14    69 1   
    37    15    70 1   
    38    15    71 1   
    39    16    17 2   
    40    16    18 1   
    41    18    19 1   
    42    18    72 1   
    43    19    20 1   
    44    19    22 1   
    45    19    73 1   
    46    20    21 2   
    47    20    26 1   
    48    22    23 1   
    49    22    74 1   
    50    22    75 1   
    51    23    24 1   
    52    23    25 1   
    53    23    76 1   
    54    24    25 1   
    55    24    77 1   
    56    24    78 1   
    57    25    79 1   
    58    25    80 1   
    59    26    27 1   
    60    26    81 1   
    61    27    28 1   
    62    27    32 1   
    63    27    82 1   
    64    28    29 1   
    65    28    83 1   
    66    28    84 1   
    67    29    30 1   
    68    29    31 1   
    69    29    85 1   
    70    30    31 1   
    71    30    86 1   
    72    30    87 1   
    73    31    88 1   
    74    31    89 1   
    75    32    34 1   
    76    32   100 2   
    77    33    34 2   
    78    34    35 1   
    79    35    36 1   
    80    35    90 1   
    81    36    37 1   
    82    36    91 1   
    83    36    92 1   
    84    37    38 2   
    85    37    39 1   
    86    39    40 1   
    87    39    93 1   
    88    40    41 1   
    89    40    47 1   
    90    40    94 1   
    91    41    42 ar  
    92    41    43 ar  
    93    42    44 ar  
    94    42    95 1   
    95    43    45 ar  
    96    43    96 1   
    97    44    46 ar  
    98    44    97 1   
    99    45    46 ar  
   100    45    98 1   
   101    46    99 1   
   102    47    48 1   
   103    47    49 1   
@<TRIPOS>SUBSTRUCTURE
     1 BNH         1 TEMP              0 ****  ****    0 ROOT
