@<TRIPOS>MOLECULE
BNI
   45    47     1     0     0
SMALL
No Charge or Current Charge


@<TRIPOS>ATOM
      1 C1          -1.9460    -0.8240    -1.5060 c          1 BNI       0.611100
      2 C10         -0.5530    -1.4550    -1.3610 c3         1 BNI      -0.159400
      3 C9           0.5460    -0.3810    -1.1700 c3         1 BNI      -0.065400
      4 C8           1.9590    -0.9870    -1.0180 c3         1 BNI      -0.078400
      5 C7           3.0590     0.0840    -0.8260 c3         1 BNI      -0.058400
      6 C2           4.4960    -0.4920    -0.7090 c5         1 BNI       0.072300
      7 C6           6.5270    -1.5440     0.4670 c5         1 BNI       0.030600
      8 C4           5.6690     0.5560    -0.7160 c5         1 BNI       0.096700
      9 C5           6.9400    -0.1300    -0.0650 c5         1 BNI       0.103700
     10 C3           6.1950     1.6230     1.3140 c          1 BNI       0.613000
     11 O2          -2.2820    -0.2550    -2.5380 o          1 BNI      -0.557100
     12 O3           6.1310     2.3900     2.2540 o          1 BNI      -0.574000
     13 N1           7.1460     0.6770     1.1410 ns         1 BNI      -0.523900
     14 N2           5.3390     1.5950     0.2680 ns         1 BNI      -0.511900
     15 S1           4.7180    -1.4620     0.8520 ss         1 BNI      -0.409000
     16 N17         -2.7670    -0.9950    -0.4000 ns         1 BNI      -0.152000
     17 C18         -4.0950    -0.5750    -0.1200 ca         1 BNI       0.035000
     18 C20         -4.8440     0.2680    -0.9680 ca         1 BNI      -0.174500
     19 C21         -6.1540     0.6480    -0.6250 ca         1 BNI      -0.011000
     20 C22         -6.7400     0.1930     0.5770 ca         1 BNI      -0.219200
     21 C23         -5.9880    -0.6470     1.4290 ca         1 BNI      -0.011000
     22 C24         -4.6800    -1.0210     1.0780 ca         1 BNI      -0.174500
     23 N25         -8.1340     0.5960     0.9440 no         1 BNI       0.701200
     24 O26         -8.6050     0.1730     2.0090 o          1 BNI      -0.405000
     25 O27         -8.7540     1.3330     0.1670 o          1 BNI      -0.405000
     26 H101        -0.5350    -2.1290    -0.4960 hc         1 BNI       0.063200
     27 H102        -0.3300    -2.0200    -2.2740 hc         1 BNI       0.063200
     28 H91          0.5370     0.3040    -2.0280 hc         1 BNI       0.058700
     29 H92          0.3130     0.2200    -0.2810 hc         1 BNI       0.058700
     30 H81          1.9630    -1.6710    -0.1610 hc         1 BNI       0.045700
     31 H82          2.1910    -1.5860    -1.9070 hc         1 BNI       0.045700
     32 H71          3.0220     0.7740    -1.6780 hc         1 BNI       0.056200
     33 H72          2.8170     0.6760     0.0640 hc         1 BNI       0.056200
     34 H21A         4.6440    -1.1830    -1.5510 h1         1 BNI       0.068700
     35 H61          7.1040    -1.8520     1.3490 h1         1 BNI       0.078200
     36 H62          6.6820    -2.3020    -0.3120 h1         1 BNI       0.078200
     37 HC4          5.8670     0.9700    -1.7140 h1         1 BNI       0.063700
     38 HC5          7.8180    -0.1530    -0.7250 h1         1 BNI       0.071700
     39 HN11         7.8700     0.5630     1.8390 hn         1 BNI       0.343500
     40 HN21         4.5670     2.2480     0.2360 hn         1 BNI       0.337500
     41 H171        -2.3370    -1.5130     0.3550 hn         1 BNI       0.154000
     42 H20         -4.4310     0.6470    -1.8970 ha         1 BNI       0.140500
     43 H21         -6.7050     1.3000    -1.3020 ha         1 BNI       0.151000
     44 H23         -6.4080    -1.0150     2.3650 ha         1 BNI       0.151000
     45 H24         -4.1170    -1.6690     1.7480 ha         1 BNI       0.140500
@<TRIPOS>BOND
     1     1     2 1   
     2     1    11 2   
     3     1    16 1   
     4     2     3 1   
     5     2    26 1   
     6     2    27 1   
     7     3     4 1   
     8     3    28 1   
     9     3    29 1   
    10     4     5 1   
    11     4    30 1   
    12     4    31 1   
    13     5     6 1   
    14     5    32 1   
    15     5    33 1   
    16     6     8 1   
    17     6    15 1   
    18     6    34 1   
    19     7     9 1   
    20     7    15 1   
    21     7    35 1   
    22     7    36 1   
    23     8     9 1   
    24     8    14 1   
    25     8    37 1   
    26     9    13 1   
    27     9    38 1   
    28    10    12 2   
    29    10    13 1   
    30    10    14 1   
    31    13    39 1   
    32    14    40 1   
    33    16    17 1   
    34    16    41 1   
    35    17    18 ar  
    36    17    22 ar  
    37    18    19 ar  
    38    18    42 1   
    39    19    20 ar  
    40    19    43 1   
    41    20    21 ar  
    42    20    23 1   
    43    21    22 ar  
    44    21    44 1   
    45    22    45 1   
    46    23    24 1   
    47    23    25 1   
@<TRIPOS>SUBSTRUCTURE
     1 BNI         1 TEMP              0 ****  ****    0 ROOT
