@<TRIPOS>MOLECULE
BNI
   45    47     1     0     0
SMALL
bcc


@<TRIPOS>ATOM
      1 C1          -1.8870    -0.1560    -0.4930 c          1 BNI       0.678100
      2 C10         -0.5630    -0.8650    -0.3330 c3         1 BNI      -0.159400
      3 C9           0.6460     0.0240    -0.5770 c3         1 BNI      -0.065400
      4 C8           1.9490    -0.7490    -0.4200 c3         1 BNI      -0.078400
      5 C7           3.1680     0.1260    -0.6810 c3         1 BNI      -0.058400
      6 C2           4.4860    -0.6200    -0.5910 c5         1 BNI       0.024400
      7 C6           6.5400    -1.6000     0.5570 c5         1 BNI      -0.017300
      8 C4           5.7140     0.2140    -0.9750 c5         1 BNI       0.096700
      9 C5           6.9790    -0.4450    -0.3500 c5         1 BNI       0.103700
     10 C3           6.8230     1.7810     0.3670 c          1 BNI       0.822500
     11 O2          -2.0130     0.9130    -1.0530 o          1 BNI      -0.557100
     12 O3           7.0900     2.8320     0.9300 o          1 BNI      -0.649500
     13 N1           7.5780     0.6540     0.3610 ns         1 BNI      -0.590900
     14 N2           5.7140     1.5260    -0.3800 ns         1 BNI      -0.578900
     15 S1           4.8520    -1.2180     1.0930 ss         1 BNI      -0.313200
     16 N17         -2.9370    -0.8570     0.0390 ns         1 BNI      -0.478100
     17 C18         -4.2900    -0.5700     0.0240 ca         1 BNI       0.127600
     18 C20         -4.8490     0.5860    -0.5330 ca         1 BNI      -0.192500
     19 C21         -6.2170     0.7770    -0.4980 ca         1 BNI      -0.029000
     20 C22         -7.0400    -0.1730     0.0890 ca         1 BNI      -0.219200
     21 C23         -6.5030    -1.3260     0.6500 ca         1 BNI      -0.029000
     22 C24         -5.1400    -1.5160     0.6140 ca         1 BNI      -0.192500
     23 N25         -8.4690     0.0360     0.1200 no         1 BNI       0.321200
     24 O26         -9.1590    -0.8110     0.6420 o          1 BNI      -0.215000
     25 O27         -8.9120     1.0470    -0.3760 o          1 BNI      -0.215000
     26 H101        -0.5100    -1.3140     0.6630 hc         1 BNI       0.063200
     27 H102        -0.5590    -1.7060    -1.0360 hc         1 BNI       0.063200
     28 H91          0.5960     0.4530    -1.5800 hc         1 BNI       0.058700
     29 H92          0.6330     0.8640     0.1230 hc         1 BNI       0.058700
     30 H81          2.0010    -1.1730     0.5880 hc         1 BNI       0.045700
     31 H82          1.9570    -1.5990    -1.1100 hc         1 BNI       0.045700
     32 H71          3.0920     0.5510    -1.6880 hc         1 BNI       0.056200
     33 H72          3.1780     0.9700     0.0140 hc         1 BNI       0.056200
     34 H21A         4.4590    -1.4910    -1.2550 h1         1 BNI       0.068700
     35 H61          7.1950    -1.7200     1.4190 h1         1 BNI       0.078200
     36 H62          6.5410    -2.5370    -0.0020 h1         1 BNI       0.078200
     37 HC4          5.7820     0.2740    -2.0650 h1         1 BNI       0.063700
     38 HC5          7.6550    -0.8290    -1.1180 h1         1 BNI       0.071700
     39 HN11         8.3660     0.5410     0.9760 hn         1 BNI       0.343500
     40 HN21         5.1770     2.2850    -0.7650 hn         1 BNI       0.337500
     41 H171        -2.6950    -1.7300     0.4840 hn         1 BNI       0.320500
     42 H20         -4.2330     1.3390    -0.9940 ha         1 BNI       0.158500
     43 H21         -6.6280     1.6750    -0.9340 ha         1 BNI       0.169000
     44 H23         -7.1300    -2.0740     1.1120 ha         1 BNI       0.169000
     45 H24         -4.7230    -2.4150     1.0500 ha         1 BNI       0.158500
@<TRIPOS>BOND
     1     1     2 1   
     2     1    11 2   
     3     1    16 1   
     4     2     3 1   
     5     2    26 1   
     6     2    27 1   
     7     3     4 1   
     8     3    28 1   
     9     3    29 1   
    10     4     5 1   
    11     4    30 1   
    12     4    31 1   
    13     5     6 1   
    14     5    32 1   
    15     5    33 1   
    16     6     8 1   
    17     6    15 1   
    18     6    34 1   
    19     7     9 1   
    20     7    15 1   
    21     7    35 1   
    22     7    36 1   
    23     8     9 1   
    24     8    14 1   
    25     8    37 1   
    26     9    13 1   
    27     9    38 1   
    28    10    12 2   
    29    10    13 1   
    30    10    14 1   
    31    13    39 1   
    32    14    40 1   
    33    16    17 1   
    34    16    41 1   
    35    17    18 ar  
    36    17    22 ar  
    37    18    19 ar  
    38    18    42 1   
    39    19    20 ar  
    40    19    43 1   
    41    20    21 ar  
    42    20    23 1   
    43    21    22 ar  
    44    21    44 1   
    45    22    45 1   
    46    23    24 1   
    47    23    25 1   
@<TRIPOS>SUBSTRUCTURE
     1 BNI         1 TEMP              0 ****  ****    0 ROOT
