@<TRIPOS>MOLECULE
BNJ
   37    39     1     0     0
SMALL
abcg2


@<TRIPOS>ATOM
      1 CAK         -2.6140    -1.7290    -0.0430 c5         1 BNJ      -0.093400
      2 CAI         -3.4470    -3.0060    -0.2850 c5         1 BNJ      -0.078900
      3 CAJ         -4.8610    -2.5230    -0.6520 c5         1 BNJ      -0.078900
      4 CAL         -4.6420    -1.1300    -1.2260 c5         1 BNJ      -0.093400
      5 CAT         -3.5740    -0.5520    -0.3010 c5         1 BNJ       0.208500
      6 NAM         -2.9700     0.6410    -0.8840 n7         1 BNJ      -0.872300
      7 SAU         -2.2610     1.7870     0.0470 sy         1 BNJ       1.157600
      8 OAB         -1.7370     2.7820    -0.8740 o          1 BNJ      -0.530500
      9 OAC         -3.2180     2.1720     1.0700 o          1 BNJ      -0.530500
     10 CAQ         -0.8830     1.0230     0.8690 ca         1 BNJ      -0.299500
     11 CAH          0.2760     0.8030     0.1430 ca         1 BNJ      -0.004000
     12 CAF         -1.0080     0.6010     2.1840 ca         1 BNJ      -0.003000
     13 CAD          0.0580    -0.0640     2.7720 ca         1 BNJ      -0.127000
     14 CAE          1.2230    -0.2950     2.0590 ca         1 BNJ      -0.051000
     15 CAP          1.3470     0.1440     0.7400 ca         1 BNJ      -0.061800
     16 CAR          2.5850    -0.0560    -0.0140 cc         1 BNJ       0.055400
     17 CAG          3.0910     0.7570    -0.9580 cd         1 BNJ      -0.190400
     18 SAO          4.6030     0.1640    -1.5690 ss         1 BNJ      -0.138200
     19 CAS          4.5380    -1.2490    -0.4940 c          1 BNJ       0.561600
     20 OAA          5.3670    -2.1280    -0.4450 o          1 BNJ      -0.497000
     21 NAN          3.3930    -1.1500     0.2340 ns         1 BNJ      -0.514600
     22 H1          -2.1900    -1.6940     0.9600 hc         1 BNJ       0.050700
     23 H2          -1.7740    -1.6770    -0.7400 hc         1 BNJ       0.050700
     24 H3          -3.0200    -3.5810    -1.1080 hc         1 BNJ       0.048200
     25 H4          -3.4570    -3.6630     0.5840 hc         1 BNJ       0.048200
     26 H5          -5.3650    -3.1920    -1.3490 hc         1 BNJ       0.048200
     27 H6          -5.4860    -2.4610     0.2420 hc         1 BNJ       0.048200
     28 H7          -4.2480    -1.1980    -2.2450 hc         1 BNJ       0.050700
     29 H8          -5.5430    -0.5160    -1.2570 hc         1 BNJ       0.050700
     30 H9          -4.0540    -0.2500     0.6320 h1         1 BNJ       0.081700
     31 H10         -2.4600     0.4730    -1.7460 hn         1 BNJ       0.484000
     32 H11          0.3540     1.1260    -0.8880 ha         1 BNJ       0.135000
     33 H12         -1.9130     0.7770     2.7470 ha         1 BNJ       0.145000
     34 H13         -0.0190    -0.3990     3.7970 ha         1 BNJ       0.125000
     35 H14          2.0460    -0.8000     2.5490 ha         1 BNJ       0.119000
     36 H15          2.6780     1.6920    -1.2990 h4         1 BNJ       0.237000
     37 H16          3.1360    -1.8970     0.8640 hn         1 BNJ       0.455000
@<TRIPOS>BOND
     1     1     2 1   
     2     1     5 1   
     3     1    22 1   
     4     1    23 1   
     5     2     3 1   
     6     2    24 1   
     7     2    25 1   
     8     3     4 1   
     9     3    26 1   
    10     3    27 1   
    11     4     5 1   
    12     4    28 1   
    13     4    29 1   
    14     5     6 1   
    15     5    30 1   
    16     6     7 1   
    17     6    31 1   
    18     7     8 2   
    19     7     9 2   
    20     7    10 1   
    21    10    11 ar  
    22    10    12 ar  
    23    11    15 ar  
    24    11    32 1   
    25    12    13 ar  
    26    12    33 1   
    27    13    14 ar  
    28    13    34 1   
    29    14    15 ar  
    30    14    35 1   
    31    15    16 1   
    32    16    17 2   
    33    16    21 1   
    34    17    18 1   
    35    17    36 1   
    36    18    19 1   
    37    19    20 2   
    38    19    21 1   
    39    21    37 1   
@<TRIPOS>SUBSTRUCTURE
     1 BNJ         1 TEMP              0 ****  ****    0 ROOT
