@<TRIPOS>MOLECULE
BNJ
   37    39     1     0     0
SMALL
No Charge or Current Charge


@<TRIPOS>ATOM
      1 CAK         -2.5850    -1.0510    -1.6090 c5         1 BNJ      -0.093400
      2 CAI         -2.6890    -2.6030    -1.5450 c5         1 BNJ      -0.078900
      3 CAJ         -3.9080    -2.8840    -0.6040 c5         1 BNJ      -0.078900
      4 CAL         -4.4320    -1.4750    -0.2040 c5         1 BNJ      -0.093400
      5 CAT         -3.1270    -0.6500    -0.2150 c5         1 BNJ       0.208500
      6 NAM         -3.5010     0.7810    -0.2030 n7         1 BNJ      -0.872300
      7 SAU         -2.3510     1.9920    -0.1660 sy         1 BNJ       1.157600
      8 OAB         -1.8950     2.1540    -1.5470 o          1 BNJ      -0.530500
      9 OAC         -2.9650     3.0810     0.5980 o          1 BNJ      -0.530500
     10 CAQ         -1.0560     1.2370     0.8310 ca         1 BNJ      -0.299500
     11 CAH          0.1020     0.7110     0.2210 ca         1 BNJ      -0.004000
     12 CAF         -1.2120     1.1540     2.2280 ca         1 BNJ      -0.003000
     13 CAD         -0.2150     0.5440     3.0060 ca         1 BNJ      -0.127000
     14 CAE          0.9360     0.0160     2.3960 ca         1 BNJ      -0.051000
     15 CAP          1.1060     0.0950     0.9980 ca         1 BNJ      -0.061800
     16 CAR          2.3030    -0.4620     0.3660 cc         1 BNJ       0.055400
     17 CAG          2.8700     0.1140    -0.7450 cd         1 BNJ      -0.190400
     18 SAO          4.3020    -0.8400    -1.1930 ss         1 BNJ      -0.138200
     19 CAS          4.0670    -2.0030     0.1830 c          1 BNJ       0.561600
     20 OAA          4.7410    -2.9760     0.4790 o          1 BNJ      -0.497000
     21 NAN          2.9560    -1.5740     0.8370 ns         1 BNJ      -0.514600
     22 H1          -1.5560    -0.7180    -1.7810 hc         1 BNJ       0.050700
     23 H2          -3.1990    -0.6480    -2.4250 hc         1 BNJ       0.050700
     24 H3          -2.8260    -3.0390    -2.5410 hc         1 BNJ       0.048200
     25 H4          -1.7730    -3.0410    -1.1310 hc         1 BNJ       0.048200
     26 H5          -4.6840    -3.4800    -1.0990 hc         1 BNJ       0.048200
     27 H6          -3.5900    -3.4510     0.2790 hc         1 BNJ       0.048200
     28 H7          -5.1650    -1.1050    -0.9320 hc         1 BNJ       0.050700
     29 H8          -4.9180    -1.4760     0.7780 hc         1 BNJ       0.050700
     30 H9          -2.4580    -0.9380     0.6100 h1         1 BNJ       0.081700
     31 H10         -4.0130     1.0230    -1.0470 hn         1 BNJ       0.484000
     32 H11          0.2170     0.7650    -0.8600 ha         1 BNJ       0.135000
     33 H12         -2.1040     1.5510     2.7110 ha         1 BNJ       0.145000
     34 H13         -0.3350     0.4790     4.0850 ha         1 BNJ       0.125000
     35 H14          1.7000    -0.4450     3.0170 ha         1 BNJ       0.119000
     36 H15          2.5710     0.9990    -1.2980 h4         1 BNJ       0.237000
     37 H16          2.6380    -2.1060     1.6390 hn         1 BNJ       0.455000
@<TRIPOS>BOND
     1     1     2 1   
     2     1     5 1   
     3     1    22 1   
     4     1    23 1   
     5     2     3 1   
     6     2    24 1   
     7     2    25 1   
     8     3     4 1   
     9     3    26 1   
    10     3    27 1   
    11     4     5 1   
    12     4    28 1   
    13     4    29 1   
    14     5     6 1   
    15     5    30 1   
    16     6     7 1   
    17     6    31 1   
    18     7     8 2   
    19     7     9 2   
    20     7    10 1   
    21    10    11 ar  
    22    10    12 ar  
    23    11    15 ar  
    24    11    32 1   
    25    12    13 ar  
    26    12    33 1   
    27    13    14 ar  
    28    13    34 1   
    29    14    15 ar  
    30    14    35 1   
    31    15    16 1   
    32    16    17 2   
    33    16    21 1   
    34    17    18 1   
    35    17    36 1   
    36    18    19 1   
    37    19    20 2   
    38    19    21 1   
    39    21    37 1   
@<TRIPOS>SUBSTRUCTURE
     1 BNJ         1 TEMP              0 ****  ****    0 ROOT
