@<TRIPOS>MOLECULE
BNK
   37    39     1     0     0
SMALL
abcg2


@<TRIPOS>ATOM
      1 CAK          4.1070    -2.4870     0.0690 c5         1 BNK      -0.094400
      2 CAI          4.3530    -2.8400     1.5340 c5         1 BNK      -0.081400
      3 CAJ          3.9400    -1.5670     2.2670 c5         1 BNK      -0.081400
      4 CAL          2.6530    -1.1620     1.5500 c5         1 BNK      -0.094400
      5 CAU          2.8690    -1.5630     0.0710 c5         1 BNK       0.222500
      6 NAM          3.0870    -0.4330    -0.8340 n7         1 BNK      -0.891300
      7 SAV          1.8810     0.1750    -1.7440 sy         1 BNK       1.169600
      8 OAB          2.4260     1.3010    -2.4770 o          1 BNK      -0.527000
      9 OAC          1.2740    -0.9310    -2.4640 o          1 BNK      -0.527000
     10 CAS          0.6180     0.7890    -0.6370 ca         1 BNK      -0.285500
     11 CAH         -0.6240     0.1770    -0.6640 ca         1 BNK       0.011000
     12 CAP          0.8500     1.8440     0.2430 ca         1 BNK       0.200000
     13 CL           2.3880     2.6140     0.3490 cl         1 BNK      -0.171000
     14 CAE         -0.1610     2.2760     1.0830 ca         1 BNK      -0.120000
     15 CAF         -1.4050     1.6680     1.0400 ca         1 BNK      -0.048000
     16 CAQ         -1.6550     0.6140     0.1650 ca         1 BNK      -0.056800
     17 CAR         -2.9670    -0.0230     0.0870 cc         1 BNK       0.053400
     18 CAG         -3.5060    -0.6270    -0.9860 cd         1 BNK      -0.183400
     19 SAO         -5.1060    -1.2090    -0.6570 ss         1 BNK      -0.134200
     20 CAT         -5.0360    -0.6020     1.0120 c          1 BNK       0.561600
     21 OAA         -5.9160    -0.7130     1.8340 o          1 BNK      -0.496000
     22 NAN         -3.8220    -0.0110     1.1750 ns         1 BNK      -0.515600
     23 H1           4.9650    -1.9360    -0.3230 hc         1 BNK       0.054450
     24 H2           3.9660    -3.3550    -0.5740 hc         1 BNK       0.054450
     25 H3           3.7150    -3.6720     1.8460 hc         1 BNK       0.048200
     26 H4           5.3860    -3.1320     1.7240 hc         1 BNK       0.048200
     27 H5           3.8010    -1.7060     3.3400 hc         1 BNK       0.048200
     28 H6           4.7070    -0.7980     2.1330 hc         1 BNK       0.048200
     29 H7           1.8100    -1.7250     1.9540 hc         1 BNK       0.054450
     30 H8           2.4130    -0.1050     1.6690 hc         1 BNK       0.054450
     31 H9           2.0000    -2.1040    -0.3030 h1         1 BNK       0.074700
     32 H10          3.7480     0.2680    -0.5180 hn         1 BNK       0.497000
     33 H11         -0.7860    -0.6600    -1.3300 ha         1 BNK       0.155000
     34 H12          0.0150     3.0930     1.7680 ha         1 BNK       0.137000
     35 H13         -2.1800     2.0470     1.6930 ha         1 BNK       0.123000
     36 H14         -3.0690    -0.7310    -1.9660 h4         1 BNK       0.238000
     37 H15         -3.5540     0.3320     2.0860 hn         1 BNK       0.454000
@<TRIPOS>BOND
     1     1     2 1   
     2     1     5 1   
     3     1    23 1   
     4     1    24 1   
     5     2     3 1   
     6     2    25 1   
     7     2    26 1   
     8     3     4 1   
     9     3    27 1   
    10     3    28 1   
    11     4     5 1   
    12     4    29 1   
    13     4    30 1   
    14     5     6 1   
    15     5    31 1   
    16     6     7 1   
    17     6    32 1   
    18     7     8 2   
    19     7     9 2   
    20     7    10 1   
    21    10    11 ar  
    22    10    12 ar  
    23    11    16 ar  
    24    11    33 1   
    25    12    13 1   
    26    12    14 ar  
    27    14    15 ar  
    28    14    34 1   
    29    15    16 ar  
    30    15    35 1   
    31    16    17 1   
    32    17    18 2   
    33    17    22 1   
    34    18    19 1   
    35    18    36 1   
    36    19    20 1   
    37    20    21 2   
    38    20    22 1   
    39    22    37 1   
@<TRIPOS>SUBSTRUCTURE
     1 BNK         1 TEMP              0 ****  ****    0 ROOT
