@<TRIPOS>MOLECULE
BNK
   37    39     1     0     0
SMALL
No Charge or Current Charge


@<TRIPOS>ATOM
      1 CAK          4.4890    -1.5710     0.6900 c5         1 BNK      -0.094400
      2 CAI          4.2330    -2.8020     1.5990 c5         1 BNK      -0.081400
      3 CAJ          2.6960    -2.7510     1.8860 c5         1 BNK      -0.081400
      4 CAL          2.1360    -1.6610     0.9200 c5         1 BNK      -0.094400
      5 CAU          3.2200    -1.6010    -0.1880 c5         1 BNK       0.222500
      6 NAM          3.1450    -0.3130    -0.9070 n7         1 BNK      -0.891300
      7 SAV          1.9010     0.0020    -1.9780 sy         1 BNK       1.169600
      8 OAB          2.4570     0.9450    -2.9510 o          1 BNK      -0.527000
      9 OAC          1.3730    -1.3010    -2.3920 o          1 BNK      -0.527000
     10 CAS          0.7120     0.8120    -0.8990 ca         1 BNK      -0.285500
     11 CAH         -0.5200     0.1700    -0.6370 ca         1 BNK       0.011000
     12 CAP          0.9770     2.0670    -0.3070 ca         1 BNK       0.200000
     13 Cl           2.4980     2.9290    -0.5370 cl         1 BNK      -0.171000
     14 CAE          0.0190     2.6570     0.5320 ca         1 BNK      -0.120000
     15 CAF         -1.2020     2.0140     0.7890 ca         1 BNK      -0.048000
     16 CAQ         -1.4830     0.7640     0.2060 ca         1 BNK      -0.056800
     17 CAR         -2.7540     0.0910     0.4780 cc         1 BNK       0.053400
     18 CAG         -3.4000    -0.6510    -0.4810 cd         1 BNK      -0.183400
     19 SAO         -4.9050    -1.2800     0.2290 ss         1 BNK      -0.134200
     20 CAT         -4.5860    -0.4850     1.8310 c          1 BNK       0.561600
     21 OAA         -5.2670    -0.5150     2.8430 o          1 BNK      -0.496000
     22 NAN         -3.4020     0.1660     1.6850 ns         1 BNK      -0.515600
     23 H1           4.5730    -0.6490     1.2790 hc         1 BNK       0.054450
     24 H2           5.4080    -1.6710     0.1020 hc         1 BNK       0.054450
     25 H3           4.5000    -3.7320     1.0810 hc         1 BNK       0.048200
     26 H4           4.8300    -2.7680     2.5180 hc         1 BNK       0.048200
     27 H5           2.2340    -3.7270     1.6980 hc         1 BNK       0.048200
     28 H6           2.4850    -2.4980     2.9320 hc         1 BNK       0.048200
     29 H7           1.1500    -1.9340     0.5280 hc         1 BNK       0.054450
     30 H8           2.0250    -0.7030     1.4420 hc         1 BNK       0.054450
     31 H9           3.2030    -2.4730    -0.8590 h1         1 BNK       0.074700
     32 H10          3.0320     0.4440    -0.2390 hn         1 BNK       0.497000
     33 H11         -0.7330    -0.8020    -1.0770 ha         1 BNK       0.155000
     34 H12          0.2270     3.6210     0.9900 ha         1 BNK       0.137000
     35 H13         -1.9320     2.4970     1.4340 ha         1 BNK       0.123000
     36 H14         -3.1220    -0.8510    -1.5110 h4         1 BNK       0.238000
     37 H15         -3.0310     0.6670     2.4860 hn         1 BNK       0.454000
@<TRIPOS>BOND
     1     1     2 1   
     2     1     5 1   
     3     1    23 1   
     4     1    24 1   
     5     2     3 1   
     6     2    25 1   
     7     2    26 1   
     8     3     4 1   
     9     3    27 1   
    10     3    28 1   
    11     4     5 1   
    12     4    29 1   
    13     4    30 1   
    14     5     6 1   
    15     5    31 1   
    16     6     7 1   
    17     6    32 1   
    18     7     8 2   
    19     7     9 2   
    20     7    10 1   
    21    10    11 ar  
    22    10    12 ar  
    23    11    16 ar  
    24    11    33 1   
    25    12    13 1   
    26    12    14 ar  
    27    14    15 ar  
    28    14    34 1   
    29    15    16 ar  
    30    15    35 1   
    31    16    17 1   
    32    17    18 2   
    33    17    22 1   
    34    18    19 1   
    35    18    36 1   
    36    19    20 1   
    37    20    21 2   
    38    20    22 1   
    39    22    37 1   
@<TRIPOS>SUBSTRUCTURE
     1 BNK         1 TEMP              0 ****  ****    0 ROOT
