@<TRIPOS>MOLECULE
BNL
   22    23     1     0     0
SMALL
No Charge or Current Charge


@<TRIPOS>ATOM
      1 C1           1.4780     1.1550    -0.3840 ca         1 BNL      -0.100000
      2 C2           0.7460    -0.0020    -0.0120 cp         1 BNL      -0.034000
      3 C3           1.4810    -1.1570     0.3590 ca         1 BNL      -0.100000
      4 C4           2.8870    -1.1560     0.3590 ca         1 BNL      -0.111000
      5 C5           3.5890     0.0010    -0.0130 ca         1 BNL      -0.108000
      6 C6           2.8840     1.1570    -0.3850 ca         1 BNL      -0.111000
      7 C12         -2.8930     1.1560     0.3420 ca         1 BNL      -0.111000
      8 C13         -3.5950    -0.0070    -0.0110 ca         1 BNL      -0.108000
      9 C14         -2.8910    -1.1680    -0.3650 ca         1 BNL      -0.111000
     10 C15         -1.4850    -1.1670    -0.3640 ca         1 BNL      -0.100000
     11 C16         -0.7520    -0.0040    -0.0120 cp         1 BNL      -0.034000
     12 C17         -1.4870     1.1570     0.3410 ca         1 BNL      -0.100000
     13 H1           0.9530     2.0560    -0.6890 ha         1 BNL       0.114000
     14 H3           0.9580    -2.0600     0.6640 ha         1 BNL       0.114000
     15 H4           3.4310    -2.0520     0.6510 ha         1 BNL       0.112000
     16 H5           4.6770     0.0020    -0.0130 ha         1 BNL       0.112000
     17 H6           3.4260     2.0540    -0.6770 ha         1 BNL       0.112000
     18 H13         -4.6830    -0.0080    -0.0110 ha         1 BNL       0.112000
     19 H14         -3.4330    -2.0700    -0.6420 ha         1 BNL       0.112000
     20 H15         -0.9590    -2.0730    -0.6540 ha         1 BNL       0.114000
     21 H17         -0.9640     2.0650     0.6300 ha         1 BNL       0.114000
     22 H12         -3.4370     2.0560     0.6190 ha         1 BNL       0.112000
@<TRIPOS>BOND
     1     1     2 ar  
     2     1     6 ar  
     3     1    13 1   
     4     2     3 ar  
     5     2    11 1   
     6     3     4 ar  
     7     3    14 1   
     8     4     5 ar  
     9     4    15 1   
    10     5     6 ar  
    11     5    16 1   
    12     6    17 1   
    13     7     8 ar  
    14     7    12 ar  
    15     7    22 1   
    16     8     9 ar  
    17     8    18 1   
    18     9    10 ar  
    19     9    19 1   
    20    10    11 ar  
    21    10    20 1   
    22    11    12 ar  
    23    12    21 1   
@<TRIPOS>SUBSTRUCTURE
     1 BNL         1 TEMP              0 ****  ****    0 ROOT
