@<TRIPOS>MOLECULE
BNL
   22    23     1     0     0
SMALL
bcc


@<TRIPOS>ATOM
      1 C1           1.4500     1.1300    -0.4110 ca         1 BNL      -0.118000
      2 C2           0.7360    -0.0020    -0.0120 cp         1 BNL      -0.034000
      3 C3           1.4520    -1.1320     0.3870 ca         1 BNL      -0.118000
      4 C4           2.8400    -1.1310     0.3860 ca         1 BNL      -0.129000
      5 C5           3.5380     0.0010    -0.0130 ca         1 BNL      -0.126000
      6 C6           2.8370     1.1320    -0.4120 ca         1 BNL      -0.129000
      7 C12         -2.8460     1.1310     0.3690 ca         1 BNL      -0.129000
      8 C13         -3.5440    -0.0070    -0.0110 ca         1 BNL      -0.126000
      9 C14         -2.8430    -1.1440    -0.3920 ca         1 BNL      -0.129000
     10 C15         -1.4560    -1.1420    -0.3920 ca         1 BNL      -0.118000
     11 C16         -0.7420    -0.0040    -0.0120 cp         1 BNL      -0.034000
     12 C17         -1.4580     1.1330     0.3680 ca         1 BNL      -0.118000
     13 H1           0.9180     2.0120    -0.7450 ha         1 BNL       0.132000
     14 H3           0.9230    -2.0160     0.7200 ha         1 BNL       0.132000
     15 H4           3.3750    -2.0150     0.7070 ha         1 BNL       0.130000
     16 H5           4.6200     0.0020    -0.0140 ha         1 BNL       0.130000
     17 H6           3.3700     2.0170    -0.7330 ha         1 BNL       0.130000
     18 H13         -4.6270    -0.0080    -0.0110 ha         1 BNL       0.130000
     19 H14         -3.3760    -2.0340    -0.6990 ha         1 BNL       0.130000
     20 H15         -0.9240    -2.0300    -0.7110 ha         1 BNL       0.132000
     21 H17         -0.9290     2.0220     0.6870 ha         1 BNL       0.132000
     22 H12         -3.3810     2.0210     0.6750 ha         1 BNL       0.130000
@<TRIPOS>BOND
     1     1     2 ar  
     2     1     6 ar  
     3     1    13 1   
     4     2     3 ar  
     5     2    11 1   
     6     3     4 ar  
     7     3    14 1   
     8     4     5 ar  
     9     4    15 1   
    10     5     6 ar  
    11     5    16 1   
    12     6    17 1   
    13     7     8 ar  
    14     7    12 ar  
    15     7    22 1   
    16     8     9 ar  
    17     8    18 1   
    18     9    10 ar  
    19     9    19 1   
    20    10    11 ar  
    21    10    20 1   
    22    11    12 ar  
    23    12    21 1   
@<TRIPOS>SUBSTRUCTURE
     1 BNL         1 TEMP              0 ****  ****    0 ROOT
