@<TRIPOS>MOLECULE
BNM
   48    51     1     0     0
SMALL
No Charge or Current Charge


@<TRIPOS>ATOM
      1 O01         -3.1670    -2.7340     0.1120 o          1 BNM      -0.584100
      2 C02         -2.2080    -3.2900    -0.4090 c          1 BNM       0.645100
      3 N03         -1.0380    -2.6570    -0.8000 ns         1 BNM      -0.147000
      4 C04         -0.6180    -1.2990    -0.7440 ca         1 BNM      -0.026000
      5 C05         -1.4710    -0.2370    -0.3700 ca         1 BNM      -0.086000
      6 C06         -1.0000     1.0920    -0.3390 ca         1 BNM      -0.030800
      7 C07         -1.8960     2.1840     0.0520 cc         1 BNM       0.054400
      8 C08         -1.8180     3.4250    -0.5320 cd         1 BNM      -0.189400
      9 S09         -3.0730     4.4560     0.1920 ss         1 BNM      -0.145200
     10 C10         -3.6650     3.1250     1.2790 c          1 BNM       0.563600
     11 O11         -4.5670     3.1590     2.0990 o          1 BNM      -0.497000
     12 N12         -2.8790     2.0510     1.0000 ns         1 BNM      -0.512600
     13 C13          0.3400     1.3560    -0.6840 ca         1 BNM      -0.037000
     14 C14          1.2040     0.3050    -1.0530 ca         1 BNM      -0.269500
     15 S15          2.9240     0.6610    -1.4830 sy         1 BNM       1.154600
     16 O16          3.5580    -0.4950    -2.1240 o          1 BNM      -0.532500
     17 O17          2.9860     2.0050    -2.0610 o          1 BNM      -0.532500
     18 N18          3.6700     0.8440    -0.0000 n7         1 BNM      -0.875300
     19 C19          3.0270     0.4470     1.2770 c5         1 BNM       0.218500
     20 C20          3.1470    -1.0880     1.4900 c5         1 BNM      -0.086900
     21 C21          4.6690    -1.3090     1.7430 c5         1 BNM      -0.073400
     22 C22          5.1690     0.0210     2.3950 c5         1 BNM      -0.073400
     23 C23          3.9120     0.9440     2.4480 c5         1 BNM      -0.086900
     24 C24          0.7140    -1.0160    -1.0930 ca         1 BNM      -0.073000
     25 C25         -2.2090    -4.7770    -0.6880 cx         1 BNM      -0.256700
     26 C26         -2.6550    -5.7300     0.4050 cx         1 BNM      -0.090900
     27 C27         -1.1950    -5.6550     0.0220 cx         1 BNM      -0.090900
     28 H1          -0.3520    -3.2830    -1.2010 hn         1 BNM       0.158000
     29 H2          -2.5110    -0.4230    -0.1230 ha         1 BNM       0.155000
     30 H3          -1.1530     3.7850    -1.3110 h4         1 BNM       0.236000
     31 H4           0.7160     2.3770    -0.6470 ha         1 BNM       0.140000
     32 H5           3.8230     1.8500    -0.0180 hn         1 BNM       0.487000
     33 H6           1.9980     0.8210     1.3670 h1         1 BNM       0.048700
     34 H7           2.5590    -1.4000     2.3600 hc         1 BNM       0.054950
     35 H8           2.7840    -1.6740     0.6410 hc         1 BNM       0.054950
     36 H9           4.8500    -2.1780     2.3860 hc         1 BNM       0.046700
     37 H10          5.1990    -1.4980     0.8010 hc         1 BNM       0.046700
     38 H11          5.5900    -0.1430     3.3930 hc         1 BNM       0.046700
     39 H12          5.9640     0.4720     1.7890 hc         1 BNM       0.046700
     40 H13          4.1700     2.0060     2.3660 hc         1 BNM       0.054950
     41 H14          3.3850     0.8240     3.4020 hc         1 BNM       0.054950
     42 H15          1.3740    -1.8310    -1.3880 ha         1 BNM       0.138000
     43 H16         -2.4660    -5.0480    -1.7080 hc         1 BNM       0.088700
     44 H17         -2.9460    -5.3140     1.3670 hc         1 BNM       0.084950
     45 H18         -3.2100    -6.6180     0.1100 hc         1 BNM       0.084950
     46 H19         -0.7730    -6.4930    -0.5290 hc         1 BNM       0.084950
     47 H20         -0.5130    -5.1930     0.7330 hc         1 BNM       0.084950
     48 H21         -3.0370     1.1970     1.5240 hn         1 BNM       0.462000
@<TRIPOS>BOND
     1     1     2 2   
     2     2     3 1   
     3     2    25 1   
     4     3     4 1   
     5     3    28 1   
     6     4     5 ar  
     7     4    24 ar  
     8     5     6 ar  
     9     5    29 1   
    10     6     7 1   
    11     6    13 ar  
    12     7     8 2   
    13     7    12 1   
    14     8     9 1   
    15     8    30 1   
    16     9    10 1   
    17    10    11 2   
    18    10    12 1   
    19    12    48 1   
    20    13    14 ar  
    21    13    31 1   
    22    14    15 1   
    23    14    24 ar  
    24    15    16 2   
    25    15    17 2   
    26    15    18 1   
    27    18    19 1   
    28    18    32 1   
    29    19    20 1   
    30    19    23 1   
    31    19    33 1   
    32    20    21 1   
    33    20    34 1   
    34    20    35 1   
    35    21    22 1   
    36    21    36 1   
    37    21    37 1   
    38    22    23 1   
    39    22    38 1   
    40    22    39 1   
    41    23    40 1   
    42    23    41 1   
    43    24    42 1   
    44    25    26 1   
    45    25    27 1   
    46    25    43 1   
    47    26    27 1   
    48    26    44 1   
    49    26    45 1   
    50    27    46 1   
    51    27    47 1   
@<TRIPOS>SUBSTRUCTURE
     1 BNM         1 TEMP              0 ****  ****    0 ROOT
