@<TRIPOS>MOLECULE
BNM
   48    51     1     0     0
SMALL
bcc


@<TRIPOS>ATOM
      1 O01         -3.1450    -2.6150     0.4290 o          1 BNM      -0.584100
      2 C02         -2.2180    -3.2650    -0.0200 c          1 BNM       0.712100
      3 N03         -1.0600    -2.7090    -0.4800 ns         1 BNM      -0.473100
      4 C04         -0.6870    -1.3710    -0.5200 ca         1 BNM       0.066600
      5 C05         -1.5390    -0.3100    -0.2140 ca         1 BNM      -0.104000
      6 C06         -1.0830     1.0060    -0.2950 ca         1 BNM      -0.030800
      7 C07         -1.9900     2.1160    -0.0020 cc         1 BNM       0.054400
      8 C08         -1.9780     3.3350    -0.5680 cd         1 BNM      -0.139400
      9 S09         -3.2580     4.3350     0.0390 ss         1 BNM      -0.145200
     10 C10         -3.8300     3.0380     1.1100 c          1 BNM       0.706100
     11 O11         -4.7660     3.1200     1.8710 o          1 BNM      -0.572500
     12 N12         -3.0170     1.9660     0.9130 ns         1 BNM      -0.466100
     13 C13          0.2260     1.2780    -0.6740 ca         1 BNM      -0.055000
     14 C14          1.0570     0.2130    -0.9830 ca         1 BNM      -0.269500
     15 S15          2.7560     0.5530    -1.3930 sy         1 BNM       1.296200
     16 O16          3.2950    -0.6330    -2.0350 o          1 BNM      -0.603300
     17 O17          2.7980     1.8370    -2.0710 o          1 BNM      -0.603300
     18 N18          3.5340     0.7530     0.0330 n7         1 BNM      -0.820100
     19 C19          3.6550    -0.3720     0.9750 c5         1 BNM       0.218500
     20 C20          4.9620    -1.1310     0.7610 c5         1 BNM      -0.086900
     21 C21          6.0360    -0.2290     1.3870 c5         1 BNM      -0.073400
     22 C22          5.3030     0.6300     2.4430 c5         1 BNM      -0.073400
     23 C23          3.8340     0.1890     2.3830 c5         1 BNM      -0.086900
     24 C24          0.6250    -1.0970    -0.9140 ca         1 BNM      -0.091000
     25 C25         -2.2450    -4.7460    -0.1130 cx         1 BNM      -0.256700
     26 C26         -3.5770    -5.4070    -0.3630 cx         1 BNM      -0.090900
     27 C27         -2.9570    -5.5030     0.9800 cx         1 BNM      -0.090900
     28 H1          -0.3570    -3.3560    -0.8040 hn         1 BNM       0.324500
     29 H2          -2.5620    -0.5090     0.0580 ha         1 BNM       0.173000
     30 H3          -1.3130     3.6890    -1.3400 h4         1 BNM       0.186000
     31 H4           0.5830     2.2980    -0.7130 ha         1 BNM       0.158000
     32 H5           3.3080     1.6470     0.4560 hn         1 BNM       0.431800
     33 H6           2.7770    -1.0230     0.9170 h1         1 BNM       0.048700
     34 H7           4.8930    -2.0780     1.3020 hc         1 BNM       0.054950
     35 H8           5.1530    -1.3680    -0.2830 hc         1 BNM       0.054950
     36 H9           6.8430    -0.8170     1.8240 hc         1 BNM       0.046700
     37 H10          6.4900     0.4070     0.6260 hc         1 BNM       0.046700
     38 H11          5.7130     0.4950     3.4440 hc         1 BNM       0.046700
     39 H12          5.3980     1.6920     2.2090 hc         1 BNM       0.046700
     40 H13          3.1250     0.9840     2.6220 hc         1 BNM       0.054950
     41 H14          3.6490    -0.6230     3.0900 hc         1 BNM       0.054950
     42 H15          1.2940    -1.9120    -1.1620 ha         1 BNM       0.156000
     43 H16         -1.3750    -5.2230    -0.5470 hc         1 BNM       0.088700
     44 H17         -4.4350    -4.7590    -0.4850 hc         1 BNM       0.084950
     45 H18         -3.5700    -6.2790    -1.0030 hc         1 BNM       0.084950
     46 H19         -2.5150    -6.4420     1.2840 hc         1 BNM       0.084950
     47 H20         -3.3870    -4.9220     1.7850 hc         1 BNM       0.084950
     48 H21         -3.1310     1.1410     1.4860 hn         1 BNM       0.348500
@<TRIPOS>BOND
     1     1     2 2   
     2     2     3 1   
     3     2    25 1   
     4     3     4 1   
     5     3    28 1   
     6     4     5 ar  
     7     4    24 ar  
     8     5     6 ar  
     9     5    29 1   
    10     6     7 1   
    11     6    13 ar  
    12     7     8 2   
    13     7    12 1   
    14     8     9 1   
    15     8    30 1   
    16     9    10 1   
    17    10    11 2   
    18    10    12 1   
    19    12    48 1   
    20    13    14 ar  
    21    13    31 1   
    22    14    15 1   
    23    14    24 ar  
    24    15    16 2   
    25    15    17 2   
    26    15    18 1   
    27    18    19 1   
    28    18    32 1   
    29    19    20 1   
    30    19    23 1   
    31    19    33 1   
    32    20    21 1   
    33    20    34 1   
    34    20    35 1   
    35    21    22 1   
    36    21    36 1   
    37    21    37 1   
    38    22    23 1   
    39    22    38 1   
    40    22    39 1   
    41    23    40 1   
    42    23    41 1   
    43    24    42 1   
    44    25    26 1   
    45    25    27 1   
    46    25    43 1   
    47    26    27 1   
    48    26    44 1   
    49    26    45 1   
    50    27    46 1   
    51    27    47 1   
@<TRIPOS>SUBSTRUCTURE
     1 BNM         1 TEMP              0 ****  ****    0 ROOT
