@<TRIPOS>MOLECULE
BNN
   32    32     1     0     0
SMALL
No Charge or Current Charge


@<TRIPOS>ATOM
      1 N           17.3640   -13.8600    20.6710 ns         1 BNN      -0.467900
      2 CA          16.1830   -13.6080    21.5340 c3         1 BNN      -0.039300
      3 C           15.8130   -14.8950    22.3330 c          1 BNN       0.715000
      4 O           15.8140   -14.8360    23.5550 o          1 BNN      -0.719000
      5 O1          18.0960   -11.7090    20.4490 o          1 BNN      -0.661100
      6 CH          19.3380   -13.4280    19.2950 c3         1 BNN      -0.178100
      7 C11         18.2190   -12.8970    20.1860 c          1 BNN       0.588100
      8 N16         10.7820   -10.5310    25.1360 nv         1 BNN      -1.035200
      9 N17          9.3340   -11.7380    23.9340 n2         1 BNN      -0.883100
     10 C1          13.8240   -12.6250    21.5920 ca         1 BNN      -0.000300
     11 C2          12.6640   -13.4100    21.7080 ca         1 BNN      -0.101000
     12 C3          11.5950   -12.9910    22.5180 ca         1 BNN      -0.090500
     13 C4          11.6700   -11.7780    23.2450 ca         1 BNN      -0.226900
     14 C5          12.8350   -10.9860    23.1070 ca         1 BNN      -0.090500
     15 C6          13.9000   -11.4090    22.2940 ca         1 BNN      -0.101000
     16 C7          14.9830   -13.0760    20.7120 c3         1 BNN      -0.038100
     17 C15         10.5180   -11.3120    24.0780 ce         1 BNN       0.677800
     18 OXT         15.6670   -15.9410    21.7140 o          1 BNN      -0.719000
     19 H           17.5570   -14.8180    20.3970 hn         1 BNN       0.340500
     20 HA          16.4640   -12.8430    22.2690 h1         1 BNN       0.060700
     21 HH11        20.0020   -12.6370    18.9290 hc         1 BNN       0.044700
     22 HH12        19.8930   -14.2000    19.8410 hc         1 BNN       0.044700
     23 HH13        18.8980   -14.0000    18.4700 hc         1 BNN       0.044700
     24 H161        11.7330   -10.5840    25.4760 hn         1 BNN       0.462500
     25 H162        10.0560   -10.5350    25.8410 hn         1 BNN       0.462500
     26 H17          9.3160   -12.3090    23.0800 hn         1 BNN       0.384400
     27 H2          12.5890   -14.3520    21.1680 ha         1 BNN       0.118500
     28 H3          10.7150   -13.6260    22.5880 ha         1 BNN       0.103000
     29 H5          12.9180   -10.0300    23.6190 ha         1 BNN       0.103000
     30 H6          14.7870   -10.7860    22.2050 ha         1 BNN       0.118500
     31 H71         15.3140   -12.2300    20.0980 hc         1 BNN       0.040700
     32 H72         14.6540   -13.8490    20.0060 hc         1 BNN       0.040700
@<TRIPOS>BOND
     1     1     2 1   
     2     1     7 1   
     3     1    19 1   
     4     2     3 1   
     5     2    16 1   
     6     2    20 1   
     7     3     4 1   
     8     3    18 1   
     9     5     7 2   
    10     6     7 1   
    11     6    21 1   
    12     6    22 1   
    13     6    23 1   
    14     8    17 1   
    15     8    24 1   
    16     8    25 1   
    17     9    17 2   
    18     9    26 1   
    19    10    11 ar  
    20    10    15 ar  
    21    10    16 1   
    22    11    12 ar  
    23    11    27 1   
    24    12    13 ar  
    25    12    28 1   
    26    13    14 ar  
    27    13    17 1   
    28    14    15 ar  
    29    14    29 1   
    30    15    30 1   
    31    16    31 1   
    32    16    32 1   
@<TRIPOS>SUBSTRUCTURE
     1 BNN         1 TEMP              0 ****  ****    0 ROOT
