@<TRIPOS>MOLECULE
BNN
   32    32     1     0     0
SMALL
bcc


@<TRIPOS>ATOM
      1 N           17.3450   -13.8380    20.6880 ns         1 BNN      -0.534900
      2 CA          16.2290   -13.6410    21.5800 c3         1 BNN      -0.039300
      3 C           15.9850   -14.9370    22.3930 c          1 BNN       0.925600
      4 O           15.3040   -14.8060    23.4220 o          1 BNN      -0.824300
      5 O1          17.8450   -11.6620    20.3490 o          1 BNN      -0.661100
      6 CH          19.2100   -13.2970    19.2610 c3         1 BNN      -0.178100
      7 C11         18.0710   -12.8520    20.1480 c          1 BNN       0.655100
      8 N16         10.9210   -10.5300    25.1080 nv         1 BNN      -0.924800
      9 N17          9.3320   -11.4720    23.7510 n2         1 BNN      -0.883100
     10 C1          13.8260   -12.7770    21.6440 ca         1 BNN      -0.000300
     11 C2          12.6540   -13.5100    21.8040 ca         1 BNN      -0.119000
     12 C3          11.6060   -13.0280    22.5720 ca         1 BNN      -0.108500
     13 C4          11.7060   -11.7980    23.2190 ca         1 BNN      -0.226900
     14 C5          12.8810   -11.0610    23.0670 ca         1 BNN      -0.108500
     15 C6          13.9170   -11.5420    22.2820 ca         1 BNN      -0.119000
     16 C7          14.9550   -13.2720    20.7890 c3         1 BNN      -0.038100
     17 C15         10.5660   -11.2840    24.0280 ce         1 BNN       0.677800
     18 OXT         16.4640   -15.9880    21.9200 o          1 BNN      -0.824300
     19 H           17.5780   -14.8060    20.5180 hn         1 BNN       0.340500
     20 HA          16.4600   -12.8260    22.2700 h1         1 BNN       0.060700
     21 HH11        20.1460   -12.8830    19.6350 hc         1 BNN       0.044700
     22 HH12        19.3130   -14.3790    19.1940 hc         1 BNN       0.044700
     23 HH13        19.0620   -12.9030    18.2550 hc         1 BNN       0.044700
     24 H161        11.8000   -10.7250    25.5570 hn         1 BNN       0.407300
     25 H162        10.1780   -10.2870    25.7430 hn         1 BNN       0.407300
     26 H17          9.2340   -11.9570    22.8670 hn         1 BNN       0.384400
     27 H2          12.5580   -14.4750    21.3210 ha         1 BNN       0.136500
     28 H3          10.7130   -13.6300    22.6830 ha         1 BNN       0.121000
     29 H5          12.9810   -10.0930    23.5410 ha         1 BNN       0.121000
     30 H6          14.8100   -10.9400    22.1590 ha         1 BNN       0.136500
     31 H71         15.2130   -12.4890    20.0710 hc         1 BNN       0.040700
     32 H72         14.6330   -14.1390    20.2080 hc         1 BNN       0.040700
@<TRIPOS>BOND
     1     1     2 1   
     2     1     7 1   
     3     1    19 1   
     4     2     3 1   
     5     2    16 1   
     6     2    20 1   
     7     3     4 1   
     8     3    18 1   
     9     5     7 2   
    10     6     7 1   
    11     6    21 1   
    12     6    22 1   
    13     6    23 1   
    14     8    17 1   
    15     8    24 1   
    16     8    25 1   
    17     9    17 2   
    18     9    26 1   
    19    10    11 ar  
    20    10    15 ar  
    21    10    16 1   
    22    11    12 ar  
    23    11    27 1   
    24    12    13 ar  
    25    12    28 1   
    26    13    14 ar  
    27    13    17 1   
    28    14    15 ar  
    29    14    29 1   
    30    15    30 1   
    31    16    31 1   
    32    16    32 1   
@<TRIPOS>SUBSTRUCTURE
     1 BNN         1 TEMP              0 ****  ****    0 ROOT
