@<TRIPOS>MOLECULE
BNP
   71    75     1     0     0
SMALL
No Charge or Current Charge


@<TRIPOS>ATOM
      1 O1           4.7960     1.0630     0.2020 os         1 BNP      -0.454000
      2 C1           4.8710     2.4760     0.4890 c6         1 BNP       0.174300
      3 C2           4.1080     3.2630    -0.6110 c6         1 BNP      -0.019400
      4 C3           2.6510     2.7800    -0.7270 ca         1 BNP      -0.098300
      5 C4           2.2140     2.1400    -1.9030 ca         1 BNP      -0.068500
      6 C5           0.9120     1.6180    -1.9860 ca         1 BNP      -0.172000
      7 C6           0.0330     1.7230    -0.8980 ca         1 BNP       0.135100
      8 O2          -1.2200     1.1600    -1.0250 os         1 BNP      -0.351100
      9 C8          -2.1590     1.1300     0.0620 c3         1 BNP       0.165600
     10 C9          -3.4030     0.3650    -0.4200 c3         1 BNP      -0.087400
     11 C10         -4.4810     0.2490     0.6710 c3         1 BNP       0.162600
     12 O3          -5.5840    -0.4810     0.1150 os         1 BNP      -0.450000
     13 C11         -6.6820    -0.6780     1.0210 c3         1 BNP       0.207900
     14 C12         -7.7700    -1.4640     0.3020 ca         1 BNP      -0.089300
     15 C13         -7.7730    -2.8730     0.3400 ca         1 BNP      -0.088000
     16 C14         -8.7790    -3.5980    -0.3220 ca         1 BNP      -0.114500
     17 C15         -9.7880    -2.9200    -1.0270 ca         1 BNP      -0.102000
     18 C16         -8.7840    -0.7900    -0.4080 ca         1 BNP      -0.088000
     19 C17         -9.7900    -1.5160    -1.0700 ca         1 BNP      -0.114500
     20 C18          0.4590     2.3760     0.2790 ca         1 BNP      -0.172000
     21 C19          1.7610     2.9000     0.3610 ca         1 BNP      -0.068500
     22 C20          4.2210     4.7880    -0.3380 c6         1 BNP      -0.069400
     23 C21          5.7040     5.2240    -0.2200 c6         1 BNP       0.157800
     24 N0           6.4170     4.4510     0.8270 n7         1 BNP      -0.867400
     25 C22          6.3430     2.9770     0.6100 c6         1 BNP       0.137800
     26 C23          5.1170     0.1500     1.2630 c3         1 BNP       0.214900
     27 C24          4.2980    -1.1170     1.0480 ca         1 BNP      -0.093300
     28 C33          2.9120    -1.0220     0.8030 ca         1 BNP      -0.070000
     29 C25          4.9060    -2.3870     1.0930 ca         1 BNP      -0.090000
     30 C26          4.1370    -3.5490     0.8920 ca         1 BNP      -0.105000
     31 C27          2.7550    -3.4500     0.6430 ca         1 BNP      -0.031000
     32 C28          1.9820    -4.6080     0.4380 ca         1 BNP      -0.103000
     33 C29          0.6030    -4.5000     0.1870 ca         1 BNP      -0.105000
     34 C30          2.1410    -2.1790     0.5980 ca         1 BNP      -0.041000
     35 C31          0.7590    -2.0750     0.3450 ca         1 BNP      -0.095000
     36 C32         -0.0080    -3.2350     0.1400 ca         1 BNP      -0.113000
     37 H1           4.3670     2.6580     1.4500 h1         1 BNP       0.048700
     38 H2           4.6170     3.0650    -1.5660 hc         1 BNP       0.060700
     39 H4           2.8890     2.0250    -2.7480 ha         1 BNP       0.113500
     40 H5           0.5880     1.1140    -2.8920 ha         1 BNP       0.122000
     41 H81         -2.4420     2.1480     0.3600 h1         1 BNP       0.033700
     42 H82         -1.7280     0.6140     0.9310 h1         1 BNP       0.033700
     43 H91         -3.1060    -0.6400    -0.7400 hc         1 BNP       0.069200
     44 H92         -3.8260     0.8780    -1.2920 hc         1 BNP       0.069200
     45 H101        -4.0680    -0.2760     1.5420 h1         1 BNP       0.019700
     46 H102        -4.7980     1.2530     0.9850 h1         1 BNP       0.019700
     47 H111        -6.3550    -1.2340     1.9100 h1         1 BNP       0.027700
     48 H112        -7.0860     0.2870     1.3550 h1         1 BNP       0.027700
     49 H13         -6.9930    -3.4050     0.8810 ha         1 BNP       0.113000
     50 H14         -8.7750    -4.6860    -0.2900 ha         1 BNP       0.113000
     51 H15        -10.5660    -3.4820    -1.5390 ha         1 BNP       0.112000
     52 H16         -8.7900     0.2980    -0.4480 ha         1 BNP       0.113000
     53 H17        -10.5690    -0.9890    -1.6160 ha         1 BNP       0.113000
     54 H18         -0.1970     2.4750     1.1390 ha         1 BNP       0.122000
     55 H19          2.0820     3.3810     1.2820 ha         1 BNP       0.113500
     56 H201         3.7360     5.3490    -1.1470 hc         1 BNP       0.051200
     57 H202         3.6910     5.0510     0.5870 hc         1 BNP       0.051200
     58 H211         6.2060     5.0760    -1.1880 h1         1 BNP       0.031700
     59 H212         5.7550     6.2970     0.0190 h1         1 BNP       0.031700
     60 HN0          7.4050     4.7400     0.8420 hn         1 BNP       0.415000
     61 H221         6.8890     2.7180    -0.3090 h1         1 BNP       0.039700
     62 H222         6.8400     2.4640     1.4470 h1         1 BNP       0.039700
     63 H231         6.1910    -0.0750     1.2700 h1         1 BNP       0.029200
     64 H232         4.8480     0.5730     2.2410 h1         1 BNP       0.029200
     65 H33          2.4370    -0.0440     0.7670 ha         1 BNP       0.124000
     66 H25          5.9730    -2.4760     1.2820 ha         1 BNP       0.111000
     67 H26          4.6190    -4.5230     0.9290 ha         1 BNP       0.112000
     68 H28          2.4470    -5.5910     0.4720 ha         1 BNP       0.111000
     69 H29          0.0080    -5.3970     0.0290 ha         1 BNP       0.111000
     70 H31          0.2810    -1.0990     0.3050 ha         1 BNP       0.121000
     71 H32         -1.0750    -3.1520    -0.0560 ha         1 BNP       0.114000
@<TRIPOS>BOND
     1     1     2 1   
     2     1    26 1   
     3     2     3 1   
     4     2    25 1   
     5     2    37 1   
     6     3     4 1   
     7     3    22 1   
     8     3    38 1   
     9     4     5 ar  
    10     4    21 ar  
    11     5     6 ar  
    12     5    39 1   
    13     6     7 ar  
    14     6    40 1   
    15     7     8 1   
    16     7    20 ar  
    17     8     9 1   
    18     9    10 1   
    19     9    41 1   
    20     9    42 1   
    21    10    11 1   
    22    10    43 1   
    23    10    44 1   
    24    11    12 1   
    25    11    45 1   
    26    11    46 1   
    27    12    13 1   
    28    13    14 1   
    29    13    47 1   
    30    13    48 1   
    31    14    15 ar  
    32    14    18 ar  
    33    15    16 ar  
    34    15    49 1   
    35    16    17 ar  
    36    16    50 1   
    37    17    19 ar  
    38    17    51 1   
    39    18    19 ar  
    40    18    52 1   
    41    19    53 1   
    42    20    21 ar  
    43    20    54 1   
    44    21    55 1   
    45    22    23 1   
    46    22    56 1   
    47    22    57 1   
    48    23    24 1   
    49    23    58 1   
    50    23    59 1   
    51    24    25 1   
    52    24    60 1   
    53    25    61 1   
    54    25    62 1   
    55    26    27 1   
    56    26    63 1   
    57    26    64 1   
    58    27    28 ar  
    59    27    29 ar  
    60    28    34 ar  
    61    28    65 1   
    62    29    30 ar  
    63    29    66 1   
    64    30    31 ar  
    65    30    67 1   
    66    31    32 ar  
    67    31    34 ar  
    68    32    33 ar  
    69    32    68 1   
    70    33    36 ar  
    71    33    69 1   
    72    34    35 ar  
    73    35    36 ar  
    74    35    70 1   
    75    36    71 1   
@<TRIPOS>SUBSTRUCTURE
     1 BNP         1 TEMP              0 ****  ****    0 ROOT
