@<TRIPOS>MOLECULE
BNP
   71    75     1     0     0
SMALL
bcc


@<TRIPOS>ATOM
      1 O1           4.6900     1.0520     0.5320 os         1 BNP      -0.407600
      2 C1           4.8250     2.4460     0.6840 c6         1 BNP       0.151100
      3 C2           4.1860     3.1380    -0.5220 c6         1 BNP      -0.019400
      4 C3           2.7470     2.7260    -0.6890 ca         1 BNP      -0.098300
      5 C4           2.3310     2.0540    -1.8360 ca         1 BNP      -0.086500
      6 C5           1.0340     1.6000    -1.9830 ca         1 BNP      -0.190000
      7 C6           0.1030     1.8020    -0.9660 ca         1 BNP       0.135100
      8 O2          -1.1270     1.2820    -1.1700 os         1 BNP      -0.327900
      9 C8          -2.0510     1.2640    -0.0980 c3         1 BNP       0.142400
     10 C9          -3.2310     0.4120    -0.5180 c3         1 BNP      -0.087400
     11 C10         -4.2830     0.3660     0.5730 c3         1 BNP       0.139400
     12 O3          -5.3390    -0.4610     0.1490 os         1 BNP      -0.403600
     13 C11         -6.3680    -0.5600     1.1080 c3         1 BNP       0.184700
     14 C12         -7.4380    -1.4650     0.5690 ca         1 BNP      -0.089300
     15 C13         -7.2110    -2.8370     0.4760 ca         1 BNP      -0.106000
     16 C14         -8.1850    -3.6800    -0.0390 ca         1 BNP      -0.132500
     17 C15         -9.3990    -3.1600    -0.4700 ca         1 BNP      -0.120000
     18 C16         -8.6530    -0.9540     0.1320 ca         1 BNP      -0.106000
     19 C17         -9.6320    -1.7950    -0.3840 ca         1 BNP      -0.132500
     20 C18          0.4880     2.4980     0.1780 ca         1 BNP      -0.190000
     21 C19          1.7970     2.9490     0.3010 ca         1 BNP      -0.086500
     22 C20          4.3900     4.6510    -0.3990 c6         1 BNP      -0.069400
     23 C21          5.8660     4.9750    -0.2140 c6         1 BNP       0.157800
     24 N0           6.3790     4.2860     0.9570 n7         1 BNP      -0.812200
     25 C22          6.2910     2.8460     0.8110 c6         1 BNP       0.137800
     26 C23          4.2370     0.3570     1.6730 c3         1 BNP       0.191700
     27 C24          3.6150    -0.9380     1.2340 ca         1 BNP      -0.093300
     28 C33          2.4240    -0.9240     0.5530 ca         1 BNP      -0.088000
     29 C25          4.2450    -2.1740     1.4940 ca         1 BNP      -0.108000
     30 C26          3.6780    -3.3510     1.0890 ca         1 BNP      -0.123000
     31 C27          2.4470    -3.3580     0.3960 ca         1 BNP      -0.031000
     32 C28          1.8270    -4.5570    -0.0290 ca         1 BNP      -0.121000
     33 C29          0.6320    -4.5270    -0.6930 ca         1 BNP      -0.123000
     34 C30          1.8100    -2.1190     0.1220 ca         1 BNP      -0.041000
     35 C31          0.5760    -2.1200    -0.5710 ca         1 BNP      -0.113000
     36 C32         -0.0000    -3.2950    -0.9680 ca         1 BNP      -0.131000
     37 H1           4.3110     2.7880     1.5940 h1         1 BNP       0.048700
     38 H2           4.7350     2.8050    -1.4130 hc         1 BNP       0.060700
     39 H4           3.0450     1.8650    -2.6290 ha         1 BNP       0.131500
     40 H5           0.7380     1.0650    -2.8770 ha         1 BNP       0.140000
     41 H81         -2.3770     2.2830     0.1430 h1         1 BNP       0.033700
     42 H82         -1.5840     0.8480     0.8020 h1         1 BNP       0.033700
     43 H91         -2.8880    -0.6040    -0.7350 hc         1 BNP       0.069200
     44 H92         -3.6700     0.8170    -1.4340 hc         1 BNP       0.069200
     45 H101        -3.8440    -0.0150     1.5070 h1         1 BNP       0.019700
     46 H102        -4.6490     1.3800     0.7890 h1         1 BNP       0.019700
     47 H111        -5.9750    -0.9610     2.0520 h1         1 BNP       0.027700
     48 H112        -6.7870     0.4290     1.3340 h1         1 BNP       0.027700
     49 H13         -6.2710    -3.2510     0.8210 ha         1 BNP       0.131000
     50 H14         -7.9980    -4.7450    -0.1000 ha         1 BNP       0.131000
     51 H15        -10.1630    -3.8170    -0.8660 ha         1 BNP       0.130000
     52 H16         -8.8390     0.1120     0.1940 ha         1 BNP       0.131000
     53 H17        -10.5750    -1.3820    -0.7180 ha         1 BNP       0.131000
     54 H18         -0.2100     2.6910     0.9820 ha         1 BNP       0.140000
     55 H19          2.0730     3.4750     1.2080 ha         1 BNP       0.131500
     56 H201         4.0080     5.1510    -1.2910 hc         1 BNP       0.051200
     57 H202         3.8240     5.0370     0.4550 hc         1 BNP       0.051200
     58 H211         6.4050     4.6950    -1.1350 h1         1 BNP       0.031700
     59 H212         6.0000     6.0490    -0.0790 h1         1 BNP       0.031700
     60 HN0          7.3400     4.5530     1.1200 hn         1 BNP       0.359800
     61 H221         6.8370     2.4690    -0.0700 h1         1 BNP       0.039700
     62 H222         6.7280     2.3690     1.6930 h1         1 BNP       0.039700
     63 H231         5.0550     0.1690     2.3810 h1         1 BNP       0.029200
     64 H232         3.4850     0.9510     2.2060 h1         1 BNP       0.029200
     65 H33          1.9350     0.0220     0.3430 ha         1 BNP       0.142000
     66 H25          5.1890    -2.1860     2.0270 ha         1 BNP       0.129000
     67 H26          4.1700    -4.2940     1.2950 ha         1 BNP       0.130000
     68 H28          2.3130    -5.5020     0.1790 ha         1 BNP       0.129000
     69 H29          0.1650    -5.4500    -1.0110 ha         1 BNP       0.129000
     70 H31          0.0920    -1.1740    -0.7840 ha         1 BNP       0.139000
     71 H32         -0.9440    -3.2850    -1.4980 ha         1 BNP       0.132000
@<TRIPOS>BOND
     1     1     2 1   
     2     1    26 1   
     3     2     3 1   
     4     2    25 1   
     5     2    37 1   
     6     3     4 1   
     7     3    22 1   
     8     3    38 1   
     9     4     5 ar  
    10     4    21 ar  
    11     5     6 ar  
    12     5    39 1   
    13     6     7 ar  
    14     6    40 1   
    15     7     8 1   
    16     7    20 ar  
    17     8     9 1   
    18     9    10 1   
    19     9    41 1   
    20     9    42 1   
    21    10    11 1   
    22    10    43 1   
    23    10    44 1   
    24    11    12 1   
    25    11    45 1   
    26    11    46 1   
    27    12    13 1   
    28    13    14 1   
    29    13    47 1   
    30    13    48 1   
    31    14    15 ar  
    32    14    18 ar  
    33    15    16 ar  
    34    15    49 1   
    35    16    17 ar  
    36    16    50 1   
    37    17    19 ar  
    38    17    51 1   
    39    18    19 ar  
    40    18    52 1   
    41    19    53 1   
    42    20    21 ar  
    43    20    54 1   
    44    21    55 1   
    45    22    23 1   
    46    22    56 1   
    47    22    57 1   
    48    23    24 1   
    49    23    58 1   
    50    23    59 1   
    51    24    25 1   
    52    24    60 1   
    53    25    61 1   
    54    25    62 1   
    55    26    27 1   
    56    26    63 1   
    57    26    64 1   
    58    27    28 ar  
    59    27    29 ar  
    60    28    34 ar  
    61    28    65 1   
    62    29    30 ar  
    63    29    66 1   
    64    30    31 ar  
    65    30    67 1   
    66    31    32 ar  
    67    31    34 ar  
    68    32    33 ar  
    69    32    68 1   
    70    33    36 ar  
    71    33    69 1   
    72    34    35 ar  
    73    35    36 ar  
    74    35    70 1   
    75    36    71 1   
@<TRIPOS>SUBSTRUCTURE
     1 BNP         1 TEMP              0 ****  ****    0 ROOT
