@<TRIPOS>MOLECULE
BNQ
   44    47     1     0     0
SMALL
No Charge or Current Charge


@<TRIPOS>ATOM
      1 C10          5.0090     0.5100    -1.7500 ca         1 BNQ      -0.062000
      2 C13         -1.4780    -1.5980    -0.5200 c3         1 BNQ      -0.154400
      3 C15         -3.9540    -0.8040    -0.5450 ca         1 BNQ      -0.077800
      4 C17         -5.7310    -2.1880     0.4150 ca         1 BNQ      -0.107750
      5 C20         -4.9410    -0.0050    -1.1590 ca         1 BNQ      -0.101750
      6 C21         -2.0980     0.7740     0.1040 ca         1 BNQ      -0.077800
      7 C22         -2.2760     0.7450     1.5030 ca         1 BNQ      -0.101750
      8 C24         -1.3310     2.9810     1.6890 ca         1 BNQ      -0.107000
      9 C26         -1.5320     1.9200    -0.4930 ca         1 BNQ      -0.101750
     10 C05          2.0610    -0.3630     0.0290 cc         1 BNQ       0.486800
     11 C06          4.2510     0.5070     0.5370 ca         1 BNQ      -0.180000
     12 C07          5.4790     1.0150     0.9880 ca         1 BNQ      -0.068000
     13 C08          6.4880     1.2740     0.0410 ca         1 BNQ      -0.109000
     14 C09          6.2530     1.0220    -1.3270 ca         1 BNQ      -0.106000
     15 C11          4.0080     0.2560    -0.7970 ca         1 BNQ       0.123400
     16 C12         -0.0690    -1.1940    -0.9650 c          1 BNQ       0.608100
     17 C14         -2.4780    -0.4340    -0.7540 c3         1 BNQ       0.041900
     18 C16         -4.3650    -1.8990     0.2500 ca         1 BNQ      -0.101750
     19 C18         -6.7030    -1.3880    -0.2080 ca         1 BNQ      -0.107000
     20 C19         -6.3070    -0.2950    -0.9940 ca         1 BNQ      -0.107750
     21 C23         -1.8950     1.8440     2.2920 ca         1 BNQ      -0.107750
     22 C25         -1.1510     3.0180     0.2970 ca         1 BNQ      -0.107750
     23 N03          2.7520    -0.2460    -1.1110 nd         1 BNQ      -0.549100
     24 N04          0.7650    -0.8310     0.0700 ns         1 BNQ      -0.417400
     25 O02          0.2550    -1.2120    -2.1440 o          1 BNQ      -0.511100
     26 S01          2.8690     0.1170     1.5410 ss         1 BNQ      -0.042200
     27 H101         4.8230     0.3150    -2.8030 ha         1 BNQ       0.136000
     28 H132        -1.8010    -2.4590    -1.1160 hc         1 BNQ       0.065200
     29 H131        -1.4740    -1.8530     0.5460 hc         1 BNQ       0.065200
     30 H171        -6.0370    -3.0330     1.0280 ha         1 BNQ       0.113000
     31 H201        -4.6480     0.8480    -1.7670 ha         1 BNQ       0.109500
     32 H221        -2.7100    -0.1300     1.9820 ha         1 BNQ       0.109500
     33 H241        -1.0350     3.8310     2.3000 ha         1 BNQ       0.113000
     34 H261        -1.3800     1.9600    -1.5690 ha         1 BNQ       0.109500
     35 H071         5.6490     1.2060     2.0460 ha         1 BNQ       0.123000
     36 H081         7.4480     1.6680     0.3650 ha         1 BNQ       0.115000
     37 H091         7.0340     1.2220    -2.0580 ha         1 BNQ       0.118000
     38 H141        -2.3750    -0.1560    -1.8120 hc         1 BNQ       0.078700
     39 H161        -3.6390    -2.5330     0.7510 ha         1 BNQ       0.109500
     40 H181        -7.7590    -1.6130    -0.0780 ha         1 BNQ       0.113000
     41 H191        -7.0570     0.3290    -1.4750 ha         1 BNQ       0.113000
     42 H231        -2.0360     1.8140     3.3700 ha         1 BNQ       0.113000
     43 H251        -0.7130     3.8970    -0.1710 ha         1 BNQ       0.113000
     44 H041         0.3360    -0.8720     0.9820 hn         1 BNQ       0.328500
@<TRIPOS>BOND
     1     1    14 ar  
     2     1    15 ar  
     3     1    27 1   
     4     2    16 1   
     5     2    17 1   
     6     2    28 1   
     7     2    29 1   
     8     3     5 ar  
     9     3    17 1   
    10     3    18 ar  
    11     4    18 ar  
    12     4    19 ar  
    13     4    30 1   
    14     5    20 ar  
    15     5    31 1   
    16     6     7 ar  
    17     6     9 ar  
    18     6    17 1   
    19     7    21 ar  
    20     7    32 1   
    21     8    21 ar  
    22     8    22 ar  
    23     8    33 1   
    24     9    22 ar  
    25     9    34 1   
    26    10    23 2   
    27    10    24 1   
    28    10    26 1   
    29    11    12 ar  
    30    11    15 ar  
    31    11    26 1   
    32    12    13 ar  
    33    12    35 1   
    34    13    14 ar  
    35    13    36 1   
    36    14    37 1   
    37    15    23 1   
    38    16    24 1   
    39    16    25 2   
    40    17    38 1   
    41    18    39 1   
    42    19    20 ar  
    43    19    40 1   
    44    20    41 1   
    45    21    42 1   
    46    22    43 1   
    47    24    44 1   
@<TRIPOS>SUBSTRUCTURE
     1 BNQ         1 TEMP              0 ****  ****    0 ROOT
