@<TRIPOS>MOLECULE
BNQ
   44    47     1     0     0
SMALL
bcc


@<TRIPOS>ATOM
      1 C10          5.1390     0.8260    -1.4250 ca         1 BNQ      -0.080000
      2 C13         -1.4050    -1.0710    -0.4650 c3         1 BNQ      -0.154400
      3 C15         -3.8750    -0.6970    -0.5290 ca         1 BNQ      -0.077800
      4 C17         -5.5440    -1.6250     0.9530 ca         1 BNQ      -0.125750
      5 C20         -4.7170    -0.9590    -1.6040 ca         1 BNQ      -0.119750
      6 C21         -2.3820     1.2350     0.0040 ca         1 BNQ      -0.077800
      7 C22         -1.7880     1.3160     1.2610 ca         1 BNQ      -0.119750
      8 C24         -2.2390     3.6800     1.3660 ca         1 BNQ      -0.125000
      9 C26         -2.9020     2.3990    -0.5590 ca         1 BNQ      -0.119750
     10 C05          2.2800    -0.6240     0.0290 cc         1 BNQ       0.486800
     11 C06          4.6580    -0.5040     0.5300 ca         1 BNQ      -0.053100
     12 C07          5.9920    -0.5020     0.9130 ca         1 BNQ      -0.086000
     13 C08          6.8940     0.1740     0.1090 ca         1 BNQ      -0.127000
     14 C09          6.4700     0.8310    -1.0490 ca         1 BNQ      -0.124000
     15 C11          4.2150     0.1510    -0.6290 ca         1 BNQ       0.123400
     16 C12         -0.0370    -0.5130    -0.7840 c          1 BNQ       0.675100
     17 C14         -2.5180    -0.0650    -0.7620 c3         1 BNQ       0.041900
     18 C16         -4.3030    -1.0370     0.7530 ca         1 BNQ      -0.119750
     19 C18         -6.3780    -1.8820    -0.1290 ca         1 BNQ      -0.125000
     20 C19         -5.9610    -1.5480    -1.4090 ca         1 BNQ      -0.125750
     21 C23         -1.7170     2.5280     1.9370 ca         1 BNQ      -0.125750
     22 C25         -2.8340     3.6110     0.1120 ca         1 BNQ      -0.125750
     23 N03          2.8660     0.0620    -0.8810 nd         1 BNQ      -0.549100
     24 N04          0.9410    -0.9150     0.0980 ns         1 BNQ      -0.484400
     25 O02          0.1780     0.1980    -1.7370 o          1 BNQ      -0.511100
     26 S01          3.3040    -1.2510     1.3150 ss         1 BNQ      -0.169100
     27 H101         4.8090     1.3320    -2.3230 ha         1 BNQ       0.154000
     28 H132        -1.5470    -1.9490    -1.1030 hc         1 BNQ       0.065200
     29 H131        -1.4620    -1.4400     0.5600 hc         1 BNQ       0.065200
     30 H171        -5.8620    -1.8800     1.9550 ha         1 BNQ       0.131000
     31 H201        -4.3960    -0.7030    -2.6070 ha         1 BNQ       0.127500
     32 H221        -1.3730     0.4360     1.7360 ha         1 BNQ       0.127500
     33 H241        -2.1770     4.6250     1.8900 ha         1 BNQ       0.131000
     34 H261        -3.3660     2.3550    -1.5380 ha         1 BNQ       0.127500
     35 H071         6.3190    -1.0100     1.8110 ha         1 BNQ       0.141000
     36 H081         7.9400     0.1920     0.3840 ha         1 BNQ       0.133000
     37 H091         7.1950     1.3530    -1.6600 ha         1 BNQ       0.136000
     38 H141        -2.4540     0.1790    -1.8250 hc         1 BNQ       0.078700
     39 H161        -3.6690    -0.8380     1.6100 ha         1 BNQ       0.127500
     40 H181        -7.3460    -2.3410     0.0280 ha         1 BNQ       0.131000
     41 H191        -6.6020    -1.7420    -2.2590 ha         1 BNQ       0.131000
     42 H231        -1.2480     2.5700     2.9110 ha         1 BNQ       0.131000
     43 H251        -3.2390     4.5040    -0.3470 ha         1 BNQ       0.131000
     44 H041         0.6440    -1.4970     0.8680 hn         1 BNQ       0.328500
@<TRIPOS>BOND
     1     1    14 ar  
     2     1    15 ar  
     3     1    27 1   
     4     2    16 1   
     5     2    17 1   
     6     2    28 1   
     7     2    29 1   
     8     3     5 ar  
     9     3    17 1   
    10     3    18 ar  
    11     4    18 ar  
    12     4    19 ar  
    13     4    30 1   
    14     5    20 ar  
    15     5    31 1   
    16     6     7 ar  
    17     6     9 ar  
    18     6    17 1   
    19     7    21 ar  
    20     7    32 1   
    21     8    21 ar  
    22     8    22 ar  
    23     8    33 1   
    24     9    22 ar  
    25     9    34 1   
    26    10    23 2   
    27    10    24 1   
    28    10    26 1   
    29    11    12 ar  
    30    11    15 ar  
    31    11    26 1   
    32    12    13 ar  
    33    12    35 1   
    34    13    14 ar  
    35    13    36 1   
    36    14    37 1   
    37    15    23 1   
    38    16    24 1   
    39    16    25 2   
    40    17    38 1   
    41    18    39 1   
    42    19    20 ar  
    43    19    40 1   
    44    20    41 1   
    45    21    42 1   
    46    22    43 1   
    47    24    44 1   
@<TRIPOS>SUBSTRUCTURE
     1 BNQ         1 TEMP              0 ****  ****    0 ROOT
