@<TRIPOS>MOLECULE
BNS
   15    15     1     0     0
SMALL
abcg2


@<TRIPOS>ATOM
      1 C1          -3.1230    -0.0090    -0.0290 ca         1 BNS      -0.108000
      2 C2          -2.4220    -1.2080    -0.0230 ca         1 BNS      -0.152000
      3 C3          -1.0350    -1.2060     0.0200 ca         1 BNS      -0.025000
      4 C4          -0.3480     0.0020     0.0570 ca         1 BNS      -0.223500
      5 S1           1.4440     0.0070     0.0460 s6         1 BNS       1.261100
      6 O1           1.8390     1.2450     0.7410 o          1 BNS      -0.695533
      7 O2           1.8450    -1.2200     0.7570 o          1 BNS      -0.695533
      8 C5          -1.0450     1.2040     0.0520 ca         1 BNS      -0.025000
      9 C6          -2.4320     1.1960     0.0090 ca         1 BNS      -0.152000
     10 H1          -4.2050    -0.0130    -0.0570 ha         1 BNS       0.084000
     11 H2          -2.9570    -2.1490    -0.0470 ha         1 BNS       0.088000
     12 H3          -0.4950    -2.1430     0.0350 ha         1 BNS       0.125500
     13 H5          -0.5120     2.1450     0.0930 ha         1 BNS       0.125500
     14 H6          -2.9750     2.1320     0.0100 ha         1 BNS       0.088000
     15 O3           1.8150    -0.0020    -1.3790 o          1 BNS      -0.695533
@<TRIPOS>BOND
     1     1     2 ar  
     2     1     9 ar  
     3     1    10 1   
     4     2     3 ar  
     5     2    11 1   
     6     3     4 ar  
     7     3    12 1   
     8     4     5 1   
     9     4     8 ar  
    10     5     6 1   
    11     5     7 1   
    12     5    15 1   
    13     8     9 ar  
    14     8    13 1   
    15     9    14 1   
@<TRIPOS>SUBSTRUCTURE
     1 BNS         1 TEMP              0 ****  ****    0 ROOT
