@<TRIPOS>MOLECULE
BNS
   15    15     1     0     0
SMALL
No Charge or Current Charge


@<TRIPOS>ATOM
      1 C1          -3.1480    -0.0090    -0.0120 ca         1 BNS      -0.108000
      2 C2          -2.4390    -1.2210    -0.0130 ca         1 BNS      -0.152000
      3 C3          -1.0330    -1.2190     0.0110 ca         1 BNS      -0.025000
      4 C4          -0.3210     0.0010     0.0410 ca         1 BNS      -0.223500
      5 S1           1.5330     0.0080     0.0600 s6         1 BNS       1.261100
      6 O1           1.8340     1.2520     0.7860 o          1 BNS      -0.695533
      7 O2           1.8430    -1.2480     0.7620 o          1 BNS      -0.695533
      8 C5          -1.0420     1.2160     0.0330 ca         1 BNS      -0.025000
      9 C6          -2.4480     1.2080     0.0090 ca         1 BNS      -0.152000
     10 H1          -4.2350    -0.0130    -0.0320 ha         1 BNS       0.084000
     11 H2          -2.9780    -2.1650    -0.0340 ha         1 BNS       0.088000
     12 H3          -0.4980    -2.1670     0.0040 ha         1 BNS       0.125500
     13 H5          -0.5140     2.1670     0.0440 ha         1 BNS       0.125500
     14 H6          -2.9940     2.1480     0.0060 ha         1 BNS       0.088000
     15 O3           1.8330     0.0220    -1.3800 o          1 BNS      -0.695533
@<TRIPOS>BOND
     1     1     2 ar  
     2     1     9 ar  
     3     1    10 1   
     4     2     3 ar  
     5     2    11 1   
     6     3     4 ar  
     7     3    12 1   
     8     4     5 1   
     9     4     8 ar  
    10     5     6 1   
    11     5     7 1   
    12     5    15 1   
    13     8     9 ar  
    14     8    13 1   
    15     9    14 1   
@<TRIPOS>SUBSTRUCTURE
     1 BNS         1 TEMP              0 ****  ****    0 ROOT
