@<TRIPOS>MOLECULE
BNT
   24    24     1     0     0
SMALL
No Charge or Current Charge


@<TRIPOS>ATOM
      1 CAA          1.4350    -2.9970     1.2570 c3         1 BNT      -0.084600
      2 CAD          1.6190    -2.1150    -0.0020 c3         1 BNT      -0.027500
      3 CAC          1.5110    -2.9250    -1.3170 c3         1 BNT      -0.084600
      4 CAE          0.7490    -0.8480     0.0080 cc         1 BNT      -0.077400
      5 CAF         -0.7370    -1.0620    -0.0420 c          1 BNT       0.562500
      6 OAB         -1.2490    -2.1750    -0.0880 o          1 BNT      -0.459100
      7 CAG         -1.5920     0.1530    -0.0330 cc         1 BNT      -0.128500
      8 BrAH        -3.4650    -0.1760    -0.0970 br         1 BNT      -0.026700
      9 CAL         -1.0770     1.4360     0.0180 cd         1 BNT      -0.088400
     10 CAM         -1.9720     2.6680     0.0250 c3         1 BNT      -0.063900
     11 CAK          0.3990     1.6630     0.0670 c          1 BNT       0.558500
     12 OAN          0.8860     2.7880     0.1130 o          1 BNT      -0.460100
     13 CAJ          1.2650     0.4490     0.0590 cd         1 BNT      -0.126500
     14 BrAI         3.1370     0.8160     0.1240 br         1 BNT      -0.027700
     15 HAA1         1.5370    -2.3920     2.1670 hc         1 BNT       0.044533
     16 HAA2         0.4560    -3.4880     1.2780 hc         1 BNT       0.044533
     17 HAA3         2.2000    -3.7820     1.2880 hc         1 BNT       0.044533
     18 HAD          2.6710    -1.8210     0.0370 hc         1 BNT       0.062700
     19 HAC1         0.5350    -3.4130    -1.4220 hc         1 BNT       0.044533
     20 HAC2         1.6640    -2.2720    -2.1840 hc         1 BNT       0.044533
     21 HAC3         2.2780    -3.7090    -1.3460 hc         1 BNT       0.044533
     22 HAM1        -2.5950     2.7020    -0.8760 hc         1 BNT       0.067700
     23 HAM2        -2.6440     2.6540     0.8910 hc         1 BNT       0.067700
     24 HAM3        -1.4230     3.6150     0.0660 hc         1 BNT       0.067700
@<TRIPOS>BOND
     1     1     2 1   
     2     1    15 1   
     3     1    16 1   
     4     1    17 1   
     5     2     3 1   
     6     2     4 1   
     7     2    18 1   
     8     3    19 1   
     9     3    20 1   
    10     3    21 1   
    11     4     5 1   
    12     4    13 2   
    13     5     6 2   
    14     5     7 1   
    15     7     8 1   
    16     7     9 2   
    17     9    10 1   
    18     9    11 1   
    19    10    22 1   
    20    10    23 1   
    21    10    24 1   
    22    11    12 2   
    23    11    13 1   
    24    13    14 1   
@<TRIPOS>SUBSTRUCTURE
     1 BNT         1 TEMP              0 ****  ****    0 ROOT
