@<TRIPOS>MOLECULE
BNT
   24    24     1     0     0
SMALL
bcc


@<TRIPOS>ATOM
      1 CAA          1.4050    -2.9550     1.2570 c3         1 BNT      -0.084600
      2 CAD          1.6310    -2.1010     0.0060 c3         1 BNT      -0.027500
      3 CAC          1.5090    -2.9170    -1.2850 c3         1 BNT      -0.084600
      4 CAE          0.7710    -0.8610    -0.0130 cc         1 BNT      -0.077400
      5 CAF         -0.7120    -1.0420    -0.0320 c          1 BNT       0.562500
      6 OAB         -1.2010    -2.1430    -0.0880 o          1 BNT      -0.459100
      7 CAG         -1.5900     0.1590     0.0210 cc         1 BNT      -0.128500
      8 BRAH        -3.4200    -0.2300     0.0350 br         1 BNT      -0.026700
      9 CAL         -1.1220     1.4110     0.0440 cd         1 BNT      -0.088400
     10 CAM         -1.9420     2.6550     0.0860 c3         1 BNT      -0.063900
     11 CAK          0.3530     1.5970    -0.0420 c          1 BNT       0.558500
     12 OAN          0.8200     2.7070    -0.1220 o          1 BNT      -0.460100
     13 CAJ          1.2340     0.3970    -0.0300 cd         1 BNT      -0.126500
     14 BRAI         3.0590     0.8300    -0.0520 br         1 BNT      -0.027700
     15 HAA1         1.4630    -2.3550     2.1660 hc         1 BNT       0.044533
     16 HAA2         0.4470    -3.4710     1.2460 hc         1 BNT       0.044533
     17 HAA3         2.1890    -3.7120     1.3120 hc         1 BNT       0.044533
     18 HAD          2.6650    -1.7640     0.0560 hc         1 BNT       0.062700
     19 HAC1         0.5470    -3.4180    -1.3690 hc         1 BNT       0.044533
     20 HAC2         1.6510    -2.2900    -2.1660 hc         1 BNT       0.044533
     21 HAC3         2.2860    -3.6820    -1.2940 hc         1 BNT       0.044533
     22 HAM1        -2.1120     3.0240    -0.9280 hc         1 BNT       0.067700
     23 HAM2        -2.9120     2.4880     0.5470 hc         1 BNT       0.067700
     24 HAM3        -1.4320     3.4420     0.6370 hc         1 BNT       0.067700
@<TRIPOS>BOND
     1     1     2 1   
     2     1    15 1   
     3     1    16 1   
     4     1    17 1   
     5     2     3 1   
     6     2     4 1   
     7     2    18 1   
     8     3    19 1   
     9     3    20 1   
    10     3    21 1   
    11     4     5 1   
    12     4    13 2   
    13     5     6 2   
    14     5     7 1   
    15     7     8 1   
    16     7     9 2   
    17     9    10 1   
    18     9    11 1   
    19    10    22 1   
    20    10    23 1   
    21    10    24 1   
    22    11    12 2   
    23    11    13 1   
    24    13    14 1   
@<TRIPOS>SUBSTRUCTURE
     1 BNT         1 TEMP              0 ****  ****    0 ROOT
