@<TRIPOS>MOLECULE
BNU
   40    42     1     0     0
SMALL
abcg2


@<TRIPOS>ATOM
      1 BR           2.3290     2.2580     0.1380 br         1 BNU      -0.126100
      2 CAP          0.9570     0.9640     0.2270 ca         1 BNU      -0.092900
      3 CAF         -0.3440     1.3910     0.3000 ca         1 BNU       0.011000
      4 CAT         -1.4120     0.4880     0.2440 ca         1 BNU      -0.232600
      5 CAS         -2.7930     1.0060     0.3030 c          1 BNU       0.593900
      6 OAC         -2.9880     2.2110     0.4490 o          1 BNU      -0.539100
      7 CAQ         -3.8170    -0.0110     0.1950 cc         1 BNU      -0.287400
      8 CAO         -5.3120     0.2750     0.1920 c          1 BNU       0.726200
      9 OAD         -6.0620    -0.7200     0.3000 o          1 BNU      -0.711000
     10 OAB         -5.6730     1.4570     0.0660 o          1 BNU      -0.711000
     11 CAH         -3.4340    -1.3150     0.0850 cd         1 BNU       0.008000
     12 NAW         -2.1670    -1.7710     0.0420 na         1 BNU      -0.653200
     13 CAI         -1.9370    -3.2010    -0.1670 c3         1 BNU       0.221800
     14 CAA         -1.6110    -3.5390    -1.6120 c3         1 BNU      -0.115100
     15 CAU         -1.1230    -0.8760     0.1100 ca         1 BNU       0.358000
     16 CAG          0.2110    -1.3030     0.0720 ca         1 BNU      -0.242000
     17 CAR          1.2690    -0.4110     0.1280 ca         1 BNU       0.324000
     18 NAV          2.5930    -0.8380     0.0510 nh         1 BNU      -0.778400
     19 CAL          3.3610    -0.7710     1.2950 c6         1 BNU       0.156800
     20 CAJ          4.8450    -0.8780     0.9830 c6         1 BNU       0.147300
     21 NAN          5.1890    -2.0590     0.2090 n7         1 BNU      -0.851400
     22 CAK          4.3380    -2.1860    -0.9610 c6         1 BNU       0.147300
     23 CAM          2.8490    -2.0850    -0.6520 c6         1 BNU       0.156800
     24 H1          -0.5740     2.4460     0.3730 ha         1 BNU       0.149000
     25 H3          -4.1970    -2.0780     0.0240 h4         1 BNU       0.223000
     26 H4          -1.1530    -3.5390     0.5100 h1         1 BNU       0.050700
     27 H5          -2.8430    -3.7190     0.1430 h1         1 BNU       0.050700
     28 H6          -1.4440    -4.6120    -1.7060 hc         1 BNU       0.042033
     29 H7          -2.4360    -3.2660    -2.2690 hc         1 BNU       0.042033
     30 H8          -0.7150    -3.0290    -1.9620 hc         1 BNU       0.042033
     31 H9           0.4370    -2.3570     0.0080 ha         1 BNU       0.107000
     32 H10          3.1570     0.1600     1.8220 h1         1 BNU       0.039950
     33 H11          3.0620    -1.5910     1.9660 h1         1 BNU       0.039950
     34 H12          5.1540     0.0110     0.4240 h1         1 BNU       0.056950
     35 H13          5.4140    -0.8850     1.9150 h1         1 BNU       0.056950
     36 H14          5.0750    -2.8800     0.7930 hn         1 BNU       0.395000
     37 H16          4.6020    -1.3960    -1.6710 h1         1 BNU       0.056950
     38 H17          4.5410    -3.1400    -1.4490 h1         1 BNU       0.056950
     39 H18          2.5390    -2.9650    -0.0650 h1         1 BNU       0.039950
     40 H19          2.2780    -2.0950    -1.5830 h1         1 BNU       0.039950
@<TRIPOS>BOND
     1     1     2 1   
     2     2     3 ar  
     3     2    17 ar  
     4     3     4 ar  
     5     3    24 1   
     6     4     5 1   
     7     4    15 ar  
     8     5     6 2   
     9     5     7 1   
    10     7     8 1   
    11     7    11 2   
    12     8     9 1   
    13     8    10 1   
    14    11    12 1   
    15    11    25 1   
    16    12    13 1   
    17    12    15 1   
    18    13    14 1   
    19    13    26 1   
    20    13    27 1   
    21    14    28 1   
    22    14    29 1   
    23    14    30 1   
    24    15    16 ar  
    25    16    17 ar  
    26    16    31 1   
    27    17    18 1   
    28    18    19 1   
    29    18    23 1   
    30    19    20 1   
    31    19    32 1   
    32    19    33 1   
    33    20    21 1   
    34    20    34 1   
    35    20    35 1   
    36    21    22 1   
    37    21    36 1   
    38    22    23 1   
    39    22    37 1   
    40    22    38 1   
    41    23    39 1   
    42    23    40 1   
@<TRIPOS>SUBSTRUCTURE
     1 BNU         1 TEMP              0 ****  ****    0 ROOT
