@<TRIPOS>MOLECULE
BNU
   40    42     1     0     0
SMALL
No Charge or Current Charge


@<TRIPOS>ATOM
      1 Br           2.3470     2.2200    -0.2920 br         1 BNU      -0.126100
      2 CAP          0.9350     0.9220    -0.1350 ca         1 BNU      -0.092900
      3 CAF         -0.3920     1.3650    -0.2090 ca         1 BNU       0.011000
      4 CAT         -1.4520     0.4410    -0.1110 ca         1 BNU      -0.232600
      5 CAS         -2.8550     0.9020    -0.0960 c          1 BNU       0.593900
      6 OAC         -3.1340     2.0390    -0.4630 o          1 BNU      -0.539100
      7 CAQ         -3.8020    -0.0840     0.4480 cc         1 BNU      -0.287400
      8 CAO         -5.1700     0.3350     0.8470 c          1 BNU       0.726200
      9 OAD         -5.9450    -0.5250     1.2400 o          1 BNU      -0.711000
     10 OAB         -5.4990     1.5100     0.8150 o          1 BNU      -0.711000
     11 CAH         -3.4810    -1.4340     0.5590 cd         1 BNU       0.008000
     12 NAW         -2.2530    -1.8610     0.0110 na         1 BNU      -0.653200
     13 CAI         -2.0360    -3.2570    -0.4530 c3         1 BNU       0.221800
     14 CAA         -1.6340    -3.3480    -1.9370 c3         1 BNU      -0.115100
     15 CAU         -1.2000    -0.9230     0.0300 ca         1 BNU       0.358000
     16 CAG          0.1380    -1.3550     0.1280 ca         1 BNU      -0.242000
     17 CAR          1.2050    -0.4490     0.0460 ca         1 BNU       0.324000
     18 NAV          2.5330    -0.9210     0.1390 nh         1 BNU      -0.778400
     19 CAL          3.2800    -0.7670     1.4250 c6         1 BNU       0.156800
     20 CAJ          4.8300    -0.8530     1.2250 c6         1 BNU       0.147300
     21 NAN          5.2490    -2.0750     0.4780 n7         1 BNU      -0.851400
     22 CAK          4.5270    -2.1670    -0.8260 c6         1 BNU       0.147300
     23 CAM          2.9720    -2.1060    -0.6620 c6         1 BNU       0.156800
     24 H1          -0.5930     2.4280    -0.3240 ha         1 BNU       0.149000
     25 H3          -4.1810    -2.1990     0.8970 h4         1 BNU       0.223000
     26 H4          -1.2830    -3.7520     0.1730 h1         1 BNU       0.050700
     27 H5          -2.9700    -3.8200    -0.3210 h1         1 BNU       0.050700
     28 H6          -1.5330    -4.3970    -2.2370 hc         1 BNU       0.042033
     29 H7          -2.3960    -2.8800    -2.5710 hc         1 BNU       0.042033
     30 H8          -0.6760    -2.8480    -2.1200 hc         1 BNU       0.042033
     31 H9           0.3660    -2.4030     0.2690 ha         1 BNU       0.107000
     32 H10          3.0400     0.1980     1.8940 h1         1 BNU       0.039950
     33 H11          2.9680    -1.5540     2.1280 h1         1 BNU       0.039950
     34 H12          5.1620     0.0400     0.6740 h1         1 BNU       0.056950
     35 H13          5.3240    -0.8290     2.2080 h1         1 BNU       0.056950
     36 H14          4.9830    -2.8920     1.0410 hn         1 BNU       0.395000
     37 H16          4.8450    -1.3370    -1.4750 h1         1 BNU       0.056950
     38 H17          4.8010    -3.1020    -1.3380 h1         1 BNU       0.056950
     39 H18          2.6310    -3.0320    -0.1750 h1         1 BNU       0.039950
     40 H19          2.5150    -2.0760    -1.6630 h1         1 BNU       0.039950
@<TRIPOS>BOND
     1     1     2 1   
     2     2     3 ar  
     3     2    17 ar  
     4     3     4 ar  
     5     3    24 1   
     6     4     5 1   
     7     4    15 ar  
     8     5     6 2   
     9     5     7 1   
    10     7     8 1   
    11     7    11 2   
    12     8     9 1   
    13     8    10 1   
    14    11    12 1   
    15    11    25 1   
    16    12    13 1   
    17    12    15 1   
    18    13    14 1   
    19    13    26 1   
    20    13    27 1   
    21    14    28 1   
    22    14    29 1   
    23    14    30 1   
    24    15    16 ar  
    25    16    17 ar  
    26    16    31 1   
    27    17    18 1   
    28    18    19 1   
    29    18    23 1   
    30    19    20 1   
    31    19    32 1   
    32    19    33 1   
    33    20    21 1   
    34    20    34 1   
    35    20    35 1   
    36    21    22 1   
    37    21    36 1   
    38    22    23 1   
    39    22    37 1   
    40    22    38 1   
    41    23    39 1   
    42    23    40 1   
@<TRIPOS>SUBSTRUCTURE
     1 BNU         1 TEMP              0 ****  ****    0 ROOT
