@<TRIPOS>MOLECULE
BNV
   46    45     1     0     0
SMALL
No Charge or Current Charge


@<TRIPOS>ATOM
      1 C01         -7.6260    -0.2040    -0.0350 c          1 BNV       0.717000
      2 C02         -6.3590     0.6640    -0.1470 c3         1 BNV      -0.203400
      3 C03         -5.0930    -0.2180    -0.0180 c3         1 BNV      -0.054400
      4 C04         -3.7780     0.5870    -0.1210 c3         1 BNV      -0.078400
      5 C05         -2.5170    -0.2960     0.0080 c3         1 BNV      -0.075400
      6 C06         -1.2030     0.5080    -0.0950 c3         1 BNV      -0.075400
      7 C07          0.0580    -0.3740     0.0340 c3         1 BNV      -0.075400
      8 C08          1.3720     0.4300    -0.0690 c3         1 BNV      -0.074400
      9 C09          2.6330    -0.4520     0.0600 c3         1 BNV      -0.075400
     10 C10          3.9470     0.3520    -0.0430 c3         1 BNV      -0.073400
     11 C11          5.2090    -0.5350     0.0920 c3         1 BNV      -0.073400
     12 C12          6.5620     0.1990    -0.1340 c3         1 BNV      -0.058700
     13 C13          7.7310    -0.8260    -0.1770 c3         1 BNV      -0.073400
     14 C14          6.8050     1.3190     0.9120 c3         1 BNV      -0.085100
     15 C15          9.0990    -0.2420    -0.5890 c3         1 BNV      -0.087100
     16 O01         -8.0940    -0.4020     1.0760 o          1 BNV      -0.744000
     17 O02         -8.0810    -0.6950    -1.0570 o          1 BNV      -0.744000
     18 H1          -6.3000     1.1310    -1.1380 hc         1 BNV       0.014200
     19 H2          -6.3110     1.3820     0.6820 hc         1 BNV       0.014200
     20 H3          -5.1180    -0.7450     0.9440 hc         1 BNV       0.037700
     21 H4          -5.1080    -0.9850    -0.8020 hc         1 BNV       0.037700
     22 H5          -3.7520     1.1130    -1.0830 hc         1 BNV       0.023700
     23 H6          -3.7620     1.3530     0.6640 hc         1 BNV       0.023700
     24 H7          -2.5430    -0.8220     0.9710 hc         1 BNV       0.033700
     25 H8          -2.5320    -1.0630    -0.7770 hc         1 BNV       0.033700
     26 H9          -1.1770     1.0350    -1.0570 hc         1 BNV       0.031700
     27 H10         -1.1870     1.2750     0.6900 hc         1 BNV       0.031700
     28 H11          0.0320    -0.9000     0.9970 hc         1 BNV       0.035200
     29 H12          0.0430    -1.1410    -0.7510 hc         1 BNV       0.035200
     30 H13          1.3980     0.9560    -1.0310 hc         1 BNV       0.034700
     31 H14          1.3870     1.1970     0.7160 hc         1 BNV       0.034700
     32 H15          2.6080    -0.9780     1.0230 hc         1 BNV       0.035700
     33 H16          2.6170    -1.2190    -0.7240 hc         1 BNV       0.035700
     34 H17          3.9750     0.8750    -1.0080 hc         1 BNV       0.036700
     35 H18          3.9480     1.1190     0.7400 hc         1 BNV       0.036700
     36 H19          5.2130    -1.0040     1.0840 hc         1 BNV       0.036200
     37 H20          5.1280    -1.3520    -0.6370 hc         1 BNV       0.036200
     38 H21          6.5120     0.6770    -1.1220 hc         1 BNV       0.043700
     39 H22          7.8290    -1.3100     0.8030 hc         1 BNV       0.035700
     40 H23          7.4790    -1.6210    -0.8910 hc         1 BNV       0.035700
     41 H24          6.8530     0.9030     1.9250 hc         1 BNV       0.030700
     42 H25          7.7430     1.8500     0.7140 hc         1 BNV       0.030700
     43 H26          6.0070     2.0690     0.8850 hc         1 BNV       0.030700
     44 H27          9.0220     0.2990    -1.5400 hc         1 BNV       0.029367
     45 H28          9.4870     0.4440     0.1740 hc         1 BNV       0.029367
     46 H29          9.8320    -1.0480    -0.7140 hc         1 BNV       0.029367
@<TRIPOS>BOND
     1     1     2 1   
     2     1    16 1   
     3     1    17 1   
     4     2     3 1   
     5     2    18 1   
     6     2    19 1   
     7     3     4 1   
     8     3    20 1   
     9     3    21 1   
    10     4     5 1   
    11     4    22 1   
    12     4    23 1   
    13     5     6 1   
    14     5    24 1   
    15     5    25 1   
    16     6     7 1   
    17     6    26 1   
    18     6    27 1   
    19     7     8 1   
    20     7    28 1   
    21     7    29 1   
    22     8     9 1   
    23     8    30 1   
    24     8    31 1   
    25     9    10 1   
    26     9    32 1   
    27     9    33 1   
    28    10    11 1   
    29    10    34 1   
    30    10    35 1   
    31    11    12 1   
    32    11    36 1   
    33    11    37 1   
    34    12    13 1   
    35    12    14 1   
    36    12    38 1   
    37    13    15 1   
    38    13    39 1   
    39    13    40 1   
    40    14    41 1   
    41    14    42 1   
    42    14    43 1   
    43    15    44 1   
    44    15    45 1   
    45    15    46 1   
@<TRIPOS>SUBSTRUCTURE
     1 BNV         1 TEMP              0 ****  ****    0 ROOT
