@<TRIPOS>MOLECULE
BNV
   46    45     1     0     0
SMALL
bcc


@<TRIPOS>ATOM
      1 C01         -7.5940    -0.1440    -0.0350 c          1 BNV       0.927600
      2 C02         -6.2450     0.5800    -0.1880 c3         1 BNV      -0.203400
      3 C03         -5.0000    -0.2690     0.0080 c3         1 BNV      -0.054400
      4 C04         -3.7100     0.5250    -0.1570 c3         1 BNV      -0.078400
      5 C05         -2.4540    -0.3180     0.0300 c3         1 BNV      -0.075400
      6 C06         -1.1640     0.4750    -0.1310 c3         1 BNV      -0.075400
      7 C07          0.0900    -0.3700     0.0520 c3         1 BNV      -0.075400
      8 C08          1.3820     0.4220    -0.1090 c3         1 BNV      -0.074400
      9 C09          2.6340    -0.4250     0.0830 c3         1 BNV      -0.075400
     10 C10          3.9280     0.3630    -0.0800 c3         1 BNV      -0.073400
     11 C11          5.1690    -0.4990     0.1200 c3         1 BNV      -0.073400
     12 C12          6.5040     0.2020    -0.1440 c3         1 BNV      -0.058700
     13 C13          7.6470    -0.8160    -0.0670 c3         1 BNV      -0.073400
     14 C14          6.7280     1.3710     0.8110 c3         1 BNV      -0.085100
     15 C15          9.0020    -0.2870    -0.5150 c3         1 BNV      -0.087100
     16 O01         -7.5790    -1.3390     0.3210 o          1 BNV      -0.849300
     17 O02         -8.6120     0.5400    -0.2770 o          1 BNV      -0.849300
     18 H1          -6.2180     1.0530    -1.1770 hc         1 BNV       0.014200
     19 H2          -6.2320     1.4170     0.5210 hc         1 BNV       0.014200
     20 H3          -5.0160    -0.7270     1.0020 hc         1 BNV       0.037700
     21 H4          -5.0030    -1.1010    -0.7040 hc         1 BNV       0.037700
     22 H5          -3.6900     0.9880    -1.1500 hc         1 BNV       0.023700
     23 H6          -3.6980     1.3540     0.5600 hc         1 BNV       0.023700
     24 H7          -2.4730    -0.7820     1.0230 hc         1 BNV       0.033700
     25 H8          -2.4620    -1.1450    -0.6890 hc         1 BNV       0.033700
     26 H9          -1.1460     0.9420    -1.1230 hc         1 BNV       0.031700
     27 H10         -1.1540     1.3010     0.5900 hc         1 BNV       0.031700
     28 H11          0.0720    -0.8360     1.0440 hc         1 BNV       0.035200
     29 H12          0.0800    -1.1950    -0.6690 hc         1 BNV       0.035200
     30 H13          1.4030     0.8820    -1.1030 hc         1 BNV       0.034700
     31 H14          1.3900     1.2510     0.6070 hc         1 BNV       0.034700
     32 H15          2.6130    -0.8840     1.0780 hc         1 BNV       0.035700
     33 H16          2.6220    -1.2550    -0.6320 hc         1 BNV       0.035700
     34 H17          3.9560     0.8120    -1.0800 hc         1 BNV       0.036700
     35 H18          3.9260     1.1980     0.6270 hc         1 BNV       0.036700
     36 H19          5.1730    -0.9020     1.1410 hc         1 BNV       0.036200
     37 H20          5.0990    -1.3670    -0.5450 hc         1 BNV       0.036200
     38 H21          6.4780     0.5970    -1.1680 hc         1 BNV       0.043700
     39 H22          7.7200    -1.1910     0.9610 hc         1 BNV       0.035700
     40 H23          7.3840    -1.6810    -0.6840 hc         1 BNV       0.035700
     41 H24          6.7360     1.0240     1.8480 hc         1 BNV       0.030700
     42 H25          7.6790     1.8700     0.6220 hc         1 BNV       0.030700
     43 H26          5.9470     2.1260     0.7200 hc         1 BNV       0.030700
     44 H27          8.9610     0.0790    -1.5430 hc         1 BNV       0.029367
     45 H28          9.3520     0.5340     0.1120 hc         1 BNV       0.029367
     46 H29          9.7610    -1.0700    -0.4750 hc         1 BNV       0.029367
@<TRIPOS>BOND
     1     1     2 1   
     2     1    16 1   
     3     1    17 1   
     4     2     3 1   
     5     2    18 1   
     6     2    19 1   
     7     3     4 1   
     8     3    20 1   
     9     3    21 1   
    10     4     5 1   
    11     4    22 1   
    12     4    23 1   
    13     5     6 1   
    14     5    24 1   
    15     5    25 1   
    16     6     7 1   
    17     6    26 1   
    18     6    27 1   
    19     7     8 1   
    20     7    28 1   
    21     7    29 1   
    22     8     9 1   
    23     8    30 1   
    24     8    31 1   
    25     9    10 1   
    26     9    32 1   
    27     9    33 1   
    28    10    11 1   
    29    10    34 1   
    30    10    35 1   
    31    11    12 1   
    32    11    36 1   
    33    11    37 1   
    34    12    13 1   
    35    12    14 1   
    36    12    38 1   
    37    13    15 1   
    38    13    39 1   
    39    13    40 1   
    40    14    41 1   
    41    14    42 1   
    42    14    43 1   
    43    15    44 1   
    44    15    45 1   
    45    15    46 1   
@<TRIPOS>SUBSTRUCTURE
     1 BNV         1 TEMP              0 ****  ****    0 ROOT
