@<TRIPOS>MOLECULE
BNY
   31    32     1     0     0
SMALL
No Charge or Current Charge


@<TRIPOS>ATOM
      1 O1          -1.4090    -2.2040     0.4780 o          1 BNY      -0.707000
      2 C2           0.4820     0.5400    -0.1340 ca         1 BNY       0.364000
      3 C4          -2.7680     1.9500     0.8450 ca         1 BNY      -0.187000
      4 C5          -4.1620     1.9660     0.6720 ca         1 BNY      -0.118000
      5 C6          -4.8060     0.8550     0.1130 ca         1 BNY      -0.157000
      6 C7          -4.0590    -0.2750    -0.2580 ca         1 BNY      -0.075000
      7 C11          1.3990     0.0140    -2.3350 ca         1 BNY      -0.077000
      8 C13          2.8600    -0.0250    -0.3770 ca         1 BNY      -0.128200
      9 O3           4.3270    -1.0630     1.1350 o          1 BNY      -0.415500
     10 N1           4.2260    -0.2830     0.1780 no         1 BNY       0.689200
     11 O2           5.1960     0.1460    -0.4610 o          1 BNY      -0.415500
     12 C1           1.7680     0.3700     0.4520 ca         1 BNY      -0.069300
     13 C            1.9760     0.6090     1.9570 c3         1 BNY      -0.046800
     14 C12          2.6620    -0.1900    -1.7660 ca         1 BNY      -0.122000
     15 C10          0.3180     0.3750    -1.5210 ca         1 BNY      -0.108000
     16 C3          -2.0050     0.8340     0.4560 ca         1 BNY       0.301000
     17 C8          -2.6580    -0.3010    -0.0810 ca         1 BNY      -0.147600
     18 C9          -1.9190    -1.5600    -0.4280 c          1 BNY       0.711600
     19 O           -2.0090    -1.9700    -1.5770 o          1 BNY      -0.707000
     20 H1          -2.2770     2.8210     1.2690 ha         1 BNY       0.085000
     21 H2          -4.7380     2.8400     0.9680 ha         1 BNY       0.086000
     22 H3          -5.8850     0.8630    -0.0240 ha         1 BNY       0.091000
     23 H4          -4.5690    -1.1430    -0.6720 ha         1 BNY       0.124000
     24 H5           1.2570    -0.1120    -3.4070 ha         1 BNY       0.115000
     25 H6           1.8470    -0.3230     2.5210 hc         1 BNY       0.048700
     26 H7           2.9760     0.9990     2.1760 hc         1 BNY       0.048700
     27 H8           1.2790     1.3460     2.3700 hc         1 BNY       0.048700
     28 H9           3.4910    -0.4860    -2.4070 ha         1 BNY       0.125000
     29 H10         -0.6540     0.5400    -1.9750 ha         1 BNY       0.140000
     30 H11         -0.3640     1.4510     1.4740 hn         1 BNY       0.475000
     31 N           -0.6230     0.9220     0.6440 nu         1 BNY      -0.973000
@<TRIPOS>BOND
     1     1    18 1   
     2     2    12 ar  
     3     2    15 ar  
     4     2    31 1   
     5     3     4 ar  
     6     3    16 ar  
     7     3    20 1   
     8     4     5 ar  
     9     4    21 1   
    10     5     6 ar  
    11     5    22 1   
    12     6    17 ar  
    13     6    23 1   
    14     7    14 ar  
    15     7    15 ar  
    16     7    24 1   
    17     8    10 1   
    18     8    12 ar  
    19     8    14 ar  
    20     9    10 1   
    21    10    11 1   
    22    12    13 1   
    23    13    25 1   
    24    13    26 1   
    25    13    27 1   
    26    14    28 1   
    27    15    29 1   
    28    16    17 ar  
    29    16    31 1   
    30    17    18 1   
    31    18    19 1   
    32    30    31 1   
@<TRIPOS>SUBSTRUCTURE
     1 BNY         1 TEMP              0 ****  ****    0 ROOT
