@<TRIPOS>MOLECULE
BNY
   31    32     1     0     0
SMALL
abcg2


@<TRIPOS>ATOM
      1 O1          -0.9680    -1.9380     0.6330 o          1 BNY      -0.707000
      2 C2           0.4490     0.5740    -0.0730 ca         1 BNY       0.364000
      3 C4          -2.7450     1.9640     0.8100 ca         1 BNY      -0.187000
      4 C5          -4.1110     1.9230     0.5860 ca         1 BNY      -0.118000
      5 C6          -4.6790     0.8000    -0.0010 ca         1 BNY      -0.157000
      6 C7          -3.8670    -0.2770    -0.3260 ca         1 BNY      -0.075000
      7 C11          1.2790     0.0910    -2.2910 ca         1 BNY      -0.077000
      8 C13          2.7300    -0.0190    -0.4150 ca         1 BNY      -0.128200
      9 O3           4.1800    -1.1410     0.9600 o          1 BNY      -0.415500
     10 N1           4.0690    -0.3380     0.0640 no         1 BNY       0.689200
     11 O2           5.0020     0.1940    -0.4900 o          1 BNY      -0.415500
     12 C1           1.7230     0.3320     0.4780 ca         1 BNY      -0.069300
     13 C            1.8980     0.5010     1.9580 c3         1 BNY      -0.046800
     14 C12          2.5460    -0.1310    -1.7860 ca         1 BNY      -0.122000
     15 C10          0.2430     0.4470    -1.4480 ca         1 BNY      -0.108000
     16 C3          -1.9320     0.8710     0.5020 ca         1 BNY       0.301000
     17 C8          -2.5020    -0.2860    -0.0520 ca         1 BNY      -0.147600
     18 C9          -1.7310    -1.5810    -0.2810 c          1 BNY       0.711600
     19 O           -1.9760    -2.1870    -1.3410 o          1 BNY      -0.707000
     20 H1          -2.2940     2.8570     1.2280 ha         1 BNY       0.085000
     21 H2          -4.7230     2.7760     0.8490 ha         1 BNY       0.086000
     22 H3          -5.7420     0.7630    -0.2020 ha         1 BNY       0.091000
     23 H4          -4.3080    -1.1570    -0.7780 ha         1 BNY       0.124000
     24 H5           1.1000     0.0010    -3.3540 ha         1 BNY       0.115000
     25 H6           1.2200    -0.1700     2.4900 hc         1 BNY       0.048700
     26 H7           2.9040     0.3080     2.3130 hc         1 BNY       0.048700
     27 H8           1.6500     1.5190     2.2660 hc         1 BNY       0.048700
     28 H9           3.3640    -0.4070    -2.4380 ha         1 BNY       0.125000
     29 H10         -0.7350     0.6480    -1.8650 ha         1 BNY       0.140000
     30 H11         -0.3180     1.6020     1.5130 hn         1 BNY       0.475000
     31 N           -0.5690     0.9660     0.7740 nu         1 BNY      -0.973000
@<TRIPOS>BOND
     1     1    18 1   
     2     2    12 ar  
     3     2    15 ar  
     4     2    31 1   
     5     3     4 ar  
     6     3    16 ar  
     7     3    20 1   
     8     4     5 ar  
     9     4    21 1   
    10     5     6 ar  
    11     5    22 1   
    12     6    17 ar  
    13     6    23 1   
    14     7    14 ar  
    15     7    15 ar  
    16     7    24 1   
    17     8    10 1   
    18     8    12 ar  
    19     8    14 ar  
    20     9    10 1   
    21    10    11 1   
    22    12    13 1   
    23    13    25 1   
    24    13    26 1   
    25    13    27 1   
    26    14    28 1   
    27    15    29 1   
    28    16    17 ar  
    29    16    31 1   
    30    17    18 1   
    31    18    19 1   
    32    30    31 1   
@<TRIPOS>SUBSTRUCTURE
     1 BNY         1 TEMP              0 ****  ****    0 ROOT
