@<TRIPOS>MOLECULE
BNZ
   12    12     1     0     0
SMALL
No Charge or Current Charge


@<TRIPOS>ATOM
      1 C1           4.5350    21.9590     1.5700 ca         1 BNZ      -0.111000
      2 C2           3.9090    23.1730     1.9020 ca         1 BNZ      -0.111000
      3 C3           4.6510    24.3680     1.9110 ca         1 BNZ      -0.111000
      4 C4           6.0200    24.3480     1.5880 ca         1 BNZ      -0.111000
      5 C5           6.6460    23.1330     1.2560 ca         1 BNZ      -0.111000
      6 C6           5.9040    21.9390     1.2470 ca         1 BNZ      -0.111000
      7 H1           3.9610    21.0350     1.5630 ha         1 BNZ       0.111000
      8 H2           2.8500    23.1890     2.1520 ha         1 BNZ       0.111000
      9 H3           4.1670    25.3070     2.1680 ha         1 BNZ       0.111000
     10 H4           6.5940    25.2720     1.5950 ha         1 BNZ       0.111000
     11 H5           7.7050    23.1180     1.0060 ha         1 BNZ       0.111000
     12 H6           6.3880    20.9990     0.9900 ha         1 BNZ       0.111000
@<TRIPOS>BOND
     1     1     2 ar  
     2     1     6 ar  
     3     1     7 1   
     4     2     3 ar  
     5     2     8 1   
     6     3     4 ar  
     7     3     9 1   
     8     4     5 ar  
     9     4    10 1   
    10     5     6 ar  
    11     5    11 1   
    12     6    12 1   
@<TRIPOS>SUBSTRUCTURE
     1 BNZ         1 TEMP              0 ****  ****    0 ROOT
