@<TRIPOS>MOLECULE
BNZ
   12    12     1     0     0
SMALL
abcg2


@<TRIPOS>ATOM
      1 C1           4.5440    21.9730     1.5700 ca         1 BNZ      -0.111000
      2 C2           3.9250    23.1730     1.8980 ca         1 BNZ      -0.111000
      3 C3           4.6590    24.3540     1.9070 ca         1 BNZ      -0.111000
      4 C4           6.0110    24.3340     1.5880 ca         1 BNZ      -0.111000
      5 C5           6.6290    23.1340     1.2600 ca         1 BNZ      -0.111000
      6 C6           5.8960    21.9530     1.2510 ca         1 BNZ      -0.111000
      7 H1           3.9730    21.0530     1.5650 ha         1 BNZ       0.111000
      8 H2           2.8720    23.1890     2.1460 ha         1 BNZ       0.111000
      9 H3           4.1760    25.2880     2.1630 ha         1 BNZ       0.111000
     10 H4           6.5830    25.2530     1.5950 ha         1 BNZ       0.111000
     11 H5           7.6830    23.1190     1.0100 ha         1 BNZ       0.111000
     12 H6           6.3790    21.0180     0.9940 ha         1 BNZ       0.111000
@<TRIPOS>BOND
     1     1     2 ar  
     2     1     6 ar  
     3     1     7 1   
     4     2     3 ar  
     5     2     8 1   
     6     3     4 ar  
     7     3     9 1   
     8     4     5 ar  
     9     4    10 1   
    10     5     6 ar  
    11     5    11 1   
    12     6    12 1   
@<TRIPOS>SUBSTRUCTURE
     1 BNZ         1 TEMP              0 ****  ****    0 ROOT
