@<TRIPOS>MOLECULE
BO0
   23    24     1     0     0
SMALL
abcg2


@<TRIPOS>ATOM
      1 O4          -0.0430    -2.2910     0.0210 oh         1 BO0      -0.671000
      2 C4           0.1710    -0.9060     0.2250 c6         1 BO0       0.132300
      3 C5          -0.9990    -0.0480    -0.2610 c6         1 BO0      -0.085700
      4 C6          -2.3140    -0.5130     0.3440 c3         1 BO0       0.166600
      5 O6          -3.3550     0.3100    -0.1350 oh         1 BO0      -0.661000
      6 C3           1.4320    -0.5570    -0.5610 c6         1 BO0       0.184300
      7 O3           2.5620    -1.2480    -0.0830 oh         1 BO0      -0.707000
      8 C2           1.7380     0.9110    -0.5110 cx         1 BO0       0.095300
      9 O1           1.6520     1.5260     0.7630 op         1 BO0      -0.432000
     10 C1           0.6790     1.8730    -0.2180 cx         1 BO0       0.085300
     11 C7          -0.7390     1.4310     0.0470 c6         1 BO0      -0.063400
     12 H1          -0.4480    -2.6670     0.8070 ho         1 BO0       0.449000
     13 H2           0.3480    -0.7050     1.2910 h1         1 BO0       0.060700
     14 H3          -1.0650    -0.1660    -1.3520 hc         1 BO0       0.071700
     15 H4          -2.4910    -1.5610     0.0770 h1         1 BO0       0.020700
     16 H5          -2.2390    -0.4650     1.4400 h1         1 BO0       0.020700
     17 H6          -4.1750     0.0250     0.2780 ho         1 BO0       0.445000
     18 H7           1.2400    -0.8040    -1.6180 h1         1 BO0       0.049700
     19 H8           2.3570    -2.1890    -0.1040 ho         1 BO0       0.517000
     20 H9           2.5860     1.2270    -1.1180 h1         1 BO0       0.100700
     21 H10          0.7930     2.8820    -0.6080 h1         1 BO0       0.090700
     22 H11         -1.4070     2.0490    -0.5540 hc         1 BO0       0.065200
     23 H12         -0.9810     1.6490     1.0930 hc         1 BO0       0.065200
@<TRIPOS>BOND
     1     1     2 1   
     2     1    12 1   
     3     2     3 1   
     4     2     6 1   
     5     2    13 1   
     6     3     4 1   
     7     3    11 1   
     8     3    14 1   
     9     4     5 1   
    10     4    15 1   
    11     4    16 1   
    12     5    17 1   
    13     6     7 1   
    14     6     8 1   
    15     6    18 1   
    16     7    19 1   
    17     8     9 1   
    18     8    10 1   
    19     8    20 1   
    20     9    10 1   
    21    10    11 1   
    22    10    21 1   
    23    11    22 1   
    24    11    23 1   
@<TRIPOS>SUBSTRUCTURE
     1 BO0         1 TEMP              0 ****  ****    0 ROOT
