@<TRIPOS>MOLECULE
BO0
   23    24     1     0     0
SMALL
No Charge or Current Charge


@<TRIPOS>ATOM
      1 O4          -0.0390    -2.3420     0.0170 oh         1 BO0      -0.671000
      2 C4           0.2170    -0.9370     0.2090 c6         1 BO0       0.132300
      3 C5          -0.9880    -0.0620    -0.2580 c6         1 BO0      -0.085700
      4 C6          -2.3450    -0.5230     0.3600 c3         1 BO0       0.166600
      5 O6          -3.4470     0.2580    -0.1210 oh         1 BO0      -0.661000
      6 C3           1.5040    -0.5470    -0.5820 c6         1 BO0       0.184300
      7 O3           2.6210    -1.3250    -0.1190 oh         1 BO0      -0.707000
      8 C2           1.8340     0.9580    -0.5000 cx         1 BO0       0.095300
      9 O1           1.6790     1.6450     0.7640 op         1 BO0      -0.432000
     10 C1           0.7060     1.9290    -0.2730 cx         1 BO0       0.085300
     11 C7          -0.7190     1.4450     0.0560 c6         1 BO0      -0.063400
     12 H1          -0.6610    -2.6260     0.7230 ho         1 BO0       0.449000
     13 H2           0.3940    -0.7370     1.2780 h1         1 BO0       0.060700
     14 H3          -1.0940    -0.1780    -1.3470 hc         1 BO0       0.071700
     15 H4          -2.5140    -1.5780     0.1100 h1         1 BO0       0.020700
     16 H5          -2.2780    -0.4470     1.4530 h1         1 BO0       0.020700
     17 H6          -4.2570    -0.0980     0.3070 ho         1 BO0       0.445000
     18 H7           1.3210    -0.7660    -1.6450 h1         1 BO0       0.049700
     19 H8           2.2490    -2.2320     0.0040 ho         1 BO0       0.517000
     20 H9           2.6820     1.2800    -1.1050 h1         1 BO0       0.100700
     21 H10          0.7750     2.9320    -0.6960 h1         1 BO0       0.090700
     22 H11         -1.4330     2.0730    -0.4940 hc         1 BO0       0.065200
     23 H12         -0.9060     1.6420     1.1210 hc         1 BO0       0.065200
@<TRIPOS>BOND
     1     1     2 1   
     2     1    12 1   
     3     2     3 1   
     4     2     6 1   
     5     2    13 1   
     6     3     4 1   
     7     3    11 1   
     8     3    14 1   
     9     4     5 1   
    10     4    15 1   
    11     4    16 1   
    12     5    17 1   
    13     6     7 1   
    14     6     8 1   
    15     6    18 1   
    16     7    19 1   
    17     8     9 1   
    18     8    10 1   
    19     8    20 1   
    20     9    10 1   
    21    10    11 1   
    22    10    21 1   
    23    11    22 1   
    24    11    23 1   
@<TRIPOS>SUBSTRUCTURE
     1 BO0         1 TEMP              0 ****  ****    0 ROOT
