@<TRIPOS>MOLECULE
BO1
   40    41     1     0     0
SMALL
abcg2


@<TRIPOS>ATOM
      1 S1           5.0030     0.5020    -0.1080 sy         1 BO1       1.145600
      2 O1           5.7430     0.2970     1.1280 o          1 BO1      -0.534500
      3 O2           5.0200     1.8040    -0.7570 o          1 BO1      -0.534500
      4 N1           5.6440    -0.5570    -1.1980 n8         1 BO1      -0.990100
      5 C1           3.3260     0.0500     0.1740 ca         1 BO1      -0.379500
      6 C2           2.3260     0.5480    -0.6510 ca         1 BO1       0.028000
      7 C3           1.0110     0.1710    -0.4610 ca         1 BO1      -0.199500
      8 C4           0.6700    -0.7330     0.5560 ca         1 BO1       0.383000
      9 C5           1.6920    -1.2120     1.3910 ca         1 BO1      -0.199500
     10 C6           3.0020    -0.8290     1.2040 ca         1 BO1       0.028000
     11 N2          -0.6080    -1.1830     0.7520 nu         1 BO1      -0.956200
     12 C7          -1.7390    -0.6910     0.0510 c6         1 BO1       0.415500
     13 C8          -2.9040    -1.6760     0.1760 c6         1 BO1       0.104300
     14 C9          -4.1310    -1.0910    -0.5110 c6         1 BO1       0.140300
     15 C10         -4.4250     0.3160    -0.0040 c6         1 BO1       0.143300
     16 C11         -3.1680     1.1780    -0.1350 c6         1 BO1       0.178300
     17 C12         -3.3690     2.5670     0.4310 c3         1 BO1       0.171600
     18 O3          -2.1100     0.5670     0.5720 os         1 BO1      -0.465000
     19 O4          -2.6160    -2.9010    -0.4480 oh         1 BO1      -0.716000
     20 O5          -5.2820    -1.8680    -0.2850 oh         1 BO1      -0.663000
     21 O6          -5.4550     0.9190    -0.7470 oh         1 BO1      -0.715000
     22 O7          -2.2030     3.3220     0.2010 oh         1 BO1      -0.710000
     23 HN11         5.6790    -1.5110    -0.8560 hn         1 BO1       0.470000
     24 HN12         5.1980    -0.5190    -2.1080 hn         1 BO1       0.470000
     25 H2           2.5560     1.2490    -1.4430 ha         1 BO1       0.133500
     26 H3           0.2560     0.6010    -1.1030 ha         1 BO1       0.121500
     27 H5           1.4490    -1.8960     2.1960 ha         1 BO1       0.121500
     28 H6           3.7650    -1.2160     1.8670 ha         1 BO1       0.133500
     29 HN2         -0.7880    -1.6150     1.6460 hn         1 BO1       0.482000
     30 H7          -1.4830    -0.5920    -1.0140 h2         1 BO1       0.067700
     31 H8          -3.1280    -1.8090     1.2460 h1         1 BO1       0.054700
     32 H9          -3.9130    -1.0210    -1.5890 h1         1 BO1       0.055700
     33 H10         -4.6900     0.2550     1.0630 h1         1 BO1       0.055700
     34 H11         -2.9110     1.2640    -1.2040 h1         1 BO1       0.060700
     35 H121        -4.2430     3.0150    -0.0520 h1         1 BO1       0.038200
     36 H122        -3.6000     2.4860     1.5030 h1         1 BO1       0.038200
     37 HO4         -1.9270    -3.3510     0.0510 ho         1 BO1       0.519000
     38 HO5         -5.2010    -2.6910    -0.7770 ho         1 BO1       0.467000
     39 HO6         -6.2380     0.3630    -0.6800 ho         1 BO1       0.527000
     40 HO7         -2.3750     4.2230     0.4880 ho         1 BO1       0.507000
@<TRIPOS>BOND
     1     1     2 2   
     2     1     3 2   
     3     1     4 1   
     4     1     5 1   
     5     4    23 1   
     6     4    24 1   
     7     5     6 ar  
     8     5    10 ar  
     9     6     7 ar  
    10     6    25 1   
    11     7     8 ar  
    12     7    26 1   
    13     8     9 ar  
    14     8    11 1   
    15     9    10 ar  
    16     9    27 1   
    17    10    28 1   
    18    11    12 1   
    19    11    29 1   
    20    12    13 1   
    21    12    18 1   
    22    12    30 1   
    23    13    14 1   
    24    13    19 1   
    25    13    31 1   
    26    14    15 1   
    27    14    20 1   
    28    14    32 1   
    29    15    16 1   
    30    15    21 1   
    31    15    33 1   
    32    16    17 1   
    33    16    18 1   
    34    16    34 1   
    35    17    22 1   
    36    17    35 1   
    37    17    36 1   
    38    19    37 1   
    39    20    38 1   
    40    21    39 1   
    41    22    40 1   
@<TRIPOS>SUBSTRUCTURE
     1 BO1         1 TEMP              0 ****  ****    0 ROOT
