@<TRIPOS>MOLECULE
BO1
   40    41     1     0     0
SMALL
No Charge or Current Charge


@<TRIPOS>ATOM
      1 S1           5.1390     0.1580    -0.7340 sy         1 BO1       1.145600
      2 O1           5.7970     1.0440     0.2260 o          1 BO1      -0.534500
      3 O2           5.2350     0.3340    -2.1810 o          1 BO1      -0.534500
      4 N1           5.7790    -1.3200    -0.4700 n8         1 BO1      -0.990100
      5 C1           3.4360    -0.1260    -0.2650 ca         1 BO1      -0.379500
      6 C2           2.4830    -0.4900    -1.2370 ca         1 BO1       0.028000
      7 C3           1.1490    -0.7090    -0.8570 ca         1 BO1      -0.199500
      8 C4           0.7600    -0.5640     0.4840 ca         1 BO1       0.383000
      9 C5           1.7110    -0.2090     1.4490 ca         1 BO1      -0.199500
     10 C6           3.0480     0.0140     1.0820 ca         1 BO1       0.028000
     11 N2          -0.5550    -0.7840     0.8800 nu         1 BO1      -0.956200
     12 C7          -1.6940    -0.2790     0.1320 c6         1 BO1       0.415500
     13 C8          -2.6840    -1.4470    -0.1990 c6         1 BO1       0.104300
     14 C9          -3.9320    -0.8480    -0.9020 c6         1 BO1       0.140300
     15 C10         -4.5720     0.2470     0.0040 c6         1 BO1       0.143300
     16 C11         -3.4910     1.3130     0.3830 c6         1 BO1       0.178300
     17 C12         -4.0390     2.3880     1.3800 c3         1 BO1       0.171600
     18 O3          -2.3400     0.6630     0.9910 os         1 BO1      -0.465000
     19 O4          -2.0670    -2.4710    -1.0130 oh         1 BO1      -0.716000
     20 O5          -4.8820    -1.8850    -1.2020 oh         1 BO1      -0.663000
     21 O6          -5.7050     0.8320    -0.6670 oh         1 BO1      -0.715000
     22 O7          -3.0500     3.3630     1.7750 oh         1 BO1      -0.710000
     23 HN11         4.9460    -1.9010    -0.4340 hn         1 BO1       0.470000
     24 HN12         6.1790    -1.5200    -1.3830 hn         1 BO1       0.470000
     25 H2           2.7650    -0.6040    -2.2840 ha         1 BO1       0.133500
     26 H3           0.4230    -0.9950    -1.6120 ha         1 BO1       0.121500
     27 H5           1.4170    -0.1000     2.4880 ha         1 BO1       0.121500
     28 H6           3.7740     0.2910     1.8460 ha         1 BO1       0.133500
     29 HN2         -0.6790    -0.7120     1.8870 hn         1 BO1       0.482000
     30 H7          -1.3780     0.2230    -0.7970 h2         1 BO1       0.067700
     31 H8          -3.0080    -1.8870     0.7560 h1         1 BO1       0.054700
     32 H9          -3.5970    -0.3710    -1.8360 h1         1 BO1       0.055700
     33 H10         -4.9070    -0.2360     0.9350 h1         1 BO1       0.055700
     34 H11         -3.1610     1.8340    -0.5290 h1         1 BO1       0.060700
     35 H121        -4.8910     2.8930     0.9060 h1         1 BO1       0.038200
     36 H122        -4.4260     1.8640     2.2650 h1         1 BO1       0.038200
     37 HO4         -1.1860    -2.6250    -0.5920 ho         1 BO1       0.519000
     38 HO5         -4.3290    -2.6610    -1.4580 ho         1 BO1       0.467000
     39 HO6         -6.1620     0.0710    -1.1030 ho         1 BO1       0.527000
     40 HO7         -3.4730     3.9450     2.4500 ho         1 BO1       0.507000
@<TRIPOS>BOND
     1     1     2 2   
     2     1     3 2   
     3     1     4 1   
     4     1     5 1   
     5     4    23 1   
     6     4    24 1   
     7     5     6 ar  
     8     5    10 ar  
     9     6     7 ar  
    10     6    25 1   
    11     7     8 ar  
    12     7    26 1   
    13     8     9 ar  
    14     8    11 1   
    15     9    10 ar  
    16     9    27 1   
    17    10    28 1   
    18    11    12 1   
    19    11    29 1   
    20    12    13 1   
    21    12    18 1   
    22    12    30 1   
    23    13    14 1   
    24    13    19 1   
    25    13    31 1   
    26    14    15 1   
    27    14    20 1   
    28    14    32 1   
    29    15    16 1   
    30    15    21 1   
    31    15    33 1   
    32    16    17 1   
    33    16    18 1   
    34    16    34 1   
    35    17    22 1   
    36    17    35 1   
    37    17    36 1   
    38    19    37 1   
    39    20    38 1   
    40    21    39 1   
    41    22    40 1   
@<TRIPOS>SUBSTRUCTURE
     1 BO1         1 TEMP              0 ****  ****    0 ROOT
