@<TRIPOS>MOLECULE
BO5
   49    50     1     0     0
SMALL
No Charge or Current Charge


@<TRIPOS>ATOM
      1 O3           0.6020     1.6980     1.8370 o          1 BO5      -0.600100
      2 C18          0.1520     1.7460     0.6980 c          1 BO5       0.635700
      3 N            0.8540     2.3860    -0.3500 n          1 BO5      -0.389800
      4 C            0.4430     2.2030    -1.7610 c3         1 BO5       0.085300
      5 C17         -1.2160     1.1960     0.3940 ca         1 BO5      -0.201600
      6 C16         -2.2620     2.1020     0.1230 ca         1 BO5       0.205100
      7 O2          -2.0380     3.4460     0.1400 oh         1 BO5      -0.525100
      8 C15         -3.5570     1.6400    -0.1310 ca         1 BO5      -0.250000
      9 C14         -3.8290     0.2710    -0.1030 ca         1 BO5       0.214100
     10 O1          -5.1020    -0.1550    -0.3470 oh         1 BO5      -0.524100
     11 C13         -2.8060    -0.6510     0.1830 ca         1 BO5      -0.018000
     12 Cl          -3.1970    -2.3800     0.2250 cl         1 BO5      -0.208000
     13 C12         -1.4880    -0.1970     0.4330 ca         1 BO5       0.065700
     14 C11         -0.3870    -1.2220     0.7130 c3         1 BO5      -0.155100
     15 C10          0.0160    -2.0520    -0.5160 c          1 BO5       0.581100
     16 O           -0.1960    -1.6660    -1.6590 o          1 BO5      -0.516100
     17 C9           0.7350    -3.3850    -0.2450 c3         1 BO5      -0.178400
     18 C8           2.2580    -3.3030    -0.5200 c3         1 BO5      -0.065400
     19 C7           2.9510    -2.1130     0.1810 c3         1 BO5      -0.085400
     20 C6           4.4790    -2.0670    -0.0310 c3         1 BO5      -0.068400
     21 C5           5.1180    -0.7790     0.5310 c3         1 BO5      -0.039200
     22 C4           4.6610     0.4590    -0.2150 c2         1 BO5      -0.222200
     23 C3           3.8360     1.4040     0.2630 c2         1 BO5      -0.210200
     24 C2           3.4070     2.6350    -0.5110 c3         1 BO5      -0.054200
     25 C1           2.0450     3.2310    -0.0800 c3         1 BO5       0.099000
     26 HC1          0.2590     1.1400    -1.9600 h1         1 BO5       0.043367
     27 HC2         -0.4720     2.7720    -1.9620 h1         1 BO5       0.043367
     28 HC3          1.2290     2.5560    -2.4400 h1         1 BO5       0.043367
     29 H11C         1.9060     4.1800    -0.6150 h1         1 BO5       0.056200
     30 H12C         2.0910     3.4840     0.9870 h1         1 BO5       0.056200
     31 H2          -2.8870     3.9030    -0.0390 ho         1 BO5       0.473000
     32 H15         -4.3630     2.3380    -0.3400 ha         1 BO5       0.137000
     33 H1          -5.1010    -1.1340    -0.2790 ho         1 BO5       0.484000
     34 H111         0.5300    -0.7920     1.1240 hc         1 BO5       0.089200
     35 H112        -0.6620    -1.9060     1.5230 hc         1 BO5       0.089200
     36 H91C         0.5970    -3.6760     0.8030 hc         1 BO5       0.061700
     37 H92C         0.3090    -4.1570    -0.8970 hc         1 BO5       0.061700
     38 H81C         2.7300    -4.2410    -0.2000 hc         1 BO5       0.049200
     39 H82C         2.4220    -3.2210    -1.6020 hc         1 BO5       0.049200
     40 H71C         2.5210    -1.1800    -0.2020 hc         1 BO5       0.044700
     41 H72C         2.7400    -2.1480     1.2570 hc         1 BO5       0.044700
     42 H61C         4.9360    -2.9380     0.4540 hc         1 BO5       0.038700
     43 H62C         4.7060    -2.1420    -1.1020 hc         1 BO5       0.038700
     44 H51C         4.8770    -0.6970     1.5990 hc         1 BO5       0.044700
     45 H52C         6.2100    -0.8650     0.4680 hc         1 BO5       0.044700
     46 H4           5.0710     0.5480    -1.2240 ha         1 BO5       0.163000
     47 H3           3.4230     1.3230     1.2720 ha         1 BO5       0.175000
     48 H21C         4.1640     3.4160    -0.3690 hc         1 BO5       0.047700
     49 H22C         3.3920     2.4240    -1.5870 hc         1 BO5       0.047700
@<TRIPOS>BOND
     1     1     2 2   
     2     2     3 1   
     3     2     5 1   
     4     3     4 1   
     5     3    25 1   
     6     4    26 1   
     7     4    27 1   
     8     4    28 1   
     9     5     6 ar  
    10     5    13 ar  
    11     6     7 1   
    12     6     8 ar  
    13     7    31 1   
    14     8     9 ar  
    15     8    32 1   
    16     9    10 1   
    17     9    11 ar  
    18    10    33 1   
    19    11    12 1   
    20    11    13 ar  
    21    13    14 1   
    22    14    15 1   
    23    14    34 1   
    24    14    35 1   
    25    15    16 2   
    26    15    17 1   
    27    17    18 1   
    28    17    36 1   
    29    17    37 1   
    30    18    19 1   
    31    18    38 1   
    32    18    39 1   
    33    19    20 1   
    34    19    40 1   
    35    19    41 1   
    36    20    21 1   
    37    20    42 1   
    38    20    43 1   
    39    21    22 1   
    40    21    44 1   
    41    21    45 1   
    42    22    23 2   
    43    22    46 1   
    44    23    24 1   
    45    23    47 1   
    46    24    25 1   
    47    24    48 1   
    48    24    49 1   
    49    25    29 1   
    50    25    30 1   
@<TRIPOS>SUBSTRUCTURE
     1 BO5         1 TEMP              0 ****  ****    0 ROOT
