@<TRIPOS>MOLECULE
BO5
   49    50     1     0     0
SMALL
bcc


@<TRIPOS>ATOM
      1 O3           0.3460     1.7410     1.9930 o          1 BO5      -0.600100
      2 C18          0.1030     1.6700     0.7950 c          1 BO5       0.702700
      3 N            0.9300     2.1360    -0.1610 n          1 BO5      -0.456800
      4 C            0.6860     1.9560    -1.5750 c3         1 BO5       0.085300
      5 C17         -1.2180     1.1050     0.3480 ca         1 BO5      -0.201600
      6 C16         -2.2010     2.0220    -0.0430 ca         1 BO5       0.205100
      7 O2          -1.8410     3.3150    -0.0950 oh         1 BO5      -0.486100
      8 C15         -3.4850     1.6030    -0.3470 ca         1 BO5      -0.268000
      9 C14         -3.8130     0.2560    -0.2660 ca         1 BO5       0.214100
     10 O1          -5.0660    -0.0980    -0.5730 oh         1 BO5      -0.485100
     11 C13         -2.8320    -0.6510     0.1290 ca         1 BO5      -0.109600
     12 CL          -3.2620    -2.3360     0.1990 cl         1 BO5      -0.116400
     13 C12         -1.5420    -0.2420     0.4570 ca         1 BO5       0.065700
     14 C11         -0.5360    -1.2710     0.8610 c3         1 BO5      -0.155100
     15 C10         -0.0290    -2.1020    -0.2990 c          1 BO5       0.581100
     16 O           -0.2330    -1.7890    -1.4480 o          1 BO5      -0.516100
     17 C9           0.7850    -3.3200     0.0650 c3         1 BO5      -0.178400
     18 C8           2.2130    -3.2290    -0.4740 c3         1 BO5      -0.065400
     19 C7           2.9530    -2.0110     0.0600 c3         1 BO5      -0.085400
     20 C6           4.4120    -1.9550    -0.3630 c3         1 BO5      -0.068400
     21 C5           5.1210    -0.7010     0.1550 c3         1 BO5      -0.039200
     22 C4           4.5380     0.5550    -0.4090 c2         1 BO5      -0.172200
     23 C3           3.9190     1.4990     0.2930 c2         1 BO5      -0.160200
     24 C2           3.3710     2.7640    -0.2840 c3         1 BO5      -0.054200
     25 C1           1.9590     3.1060     0.1820 c3         1 BO5       0.099000
     26 HC1         -0.0290     1.1580    -1.7490 h1         1 BO5       0.043367
     27 HC2          0.3160     2.8730    -2.0390 h1         1 BO5       0.043367
     28 HC3          1.6130     1.6730    -2.0740 h1         1 BO5       0.043367
     29 H11C         1.6710     4.0670    -0.2590 h1         1 BO5       0.056200
     30 H12C         1.9570     3.2350     1.2610 h1         1 BO5       0.056200
     31 H2          -2.5770     3.8640    -0.3910 ho         1 BO5       0.434000
     32 H15         -4.2480     2.3160    -0.6390 ha         1 BO5       0.155000
     33 H1          -5.1910    -1.0520    -0.4900 ho         1 BO5       0.445000
     34 H111         0.3420    -0.8240     1.3360 hc         1 BO5       0.089200
     35 H112        -0.9430    -1.9410     1.6230 hc         1 BO5       0.089200
     36 H91C         0.8050    -3.4540     1.1480 hc         1 BO5       0.061700
     37 H92C         0.2800    -4.1960    -0.3550 hc         1 BO5       0.061700
     38 H81C         2.7430    -4.1420    -0.1900 hc         1 BO5       0.049200
     39 H82C         2.1960    -3.2060    -1.5670 hc         1 BO5       0.049200
     40 H71C         2.4550    -1.0960    -0.2790 hc         1 BO5       0.044700
     41 H72C         2.8930    -1.9980     1.1550 hc         1 BO5       0.044700
     42 H61C         4.9370    -2.8420     0.0050 hc         1 BO5       0.038700
     43 H62C         4.4810    -1.9890    -1.4560 hc         1 BO5       0.038700
     44 H51C         5.0710    -0.6790     1.2480 hc         1 BO5       0.044700
     45 H52C         6.1810    -0.7610    -0.1080 hc         1 BO5       0.044700
     46 H4           4.6250     0.6780    -1.4880 ha         1 BO5       0.113000
     47 H3           3.8220     1.3780     1.3710 ha         1 BO5       0.125000
     48 H21C         3.9940     3.6080     0.0320 hc         1 BO5       0.047700
     49 H22C         3.4370     2.7410    -1.3750 hc         1 BO5       0.047700
@<TRIPOS>BOND
     1     1     2 2   
     2     2     3 1   
     3     2     5 1   
     4     3     4 1   
     5     3    25 1   
     6     4    26 1   
     7     4    27 1   
     8     4    28 1   
     9     5     6 ar  
    10     5    13 ar  
    11     6     7 1   
    12     6     8 ar  
    13     7    31 1   
    14     8     9 ar  
    15     8    32 1   
    16     9    10 1   
    17     9    11 ar  
    18    10    33 1   
    19    11    12 1   
    20    11    13 ar  
    21    13    14 1   
    22    14    15 1   
    23    14    34 1   
    24    14    35 1   
    25    15    16 2   
    26    15    17 1   
    27    17    18 1   
    28    17    36 1   
    29    17    37 1   
    30    18    19 1   
    31    18    38 1   
    32    18    39 1   
    33    19    20 1   
    34    19    40 1   
    35    19    41 1   
    36    20    21 1   
    37    20    42 1   
    38    20    43 1   
    39    21    22 1   
    40    21    44 1   
    41    21    45 1   
    42    22    23 2   
    43    22    46 1   
    44    23    24 1   
    45    23    47 1   
    46    24    25 1   
    47    24    48 1   
    48    24    49 1   
    49    25    29 1   
    50    25    30 1   
@<TRIPOS>SUBSTRUCTURE
     1 BO5         1 TEMP              0 ****  ****    0 ROOT
