@<TRIPOS>MOLECULE
BO6
   56    60     1     0     0
SMALL
abcg2


@<TRIPOS>ATOM
      1 C17          5.9590     2.1470     0.2560 ca         1 BO6      -0.145750
      2 C18          6.9170     3.1220     0.2210 ca         1 BO6       0.000200
      3 N19          8.1940     2.8380    -0.0880 na         1 BO6       0.041300
      4 C31          9.1880     3.9120    -0.0850 c3         1 BO6       0.015900
      5 C20          8.5530     1.5760    -0.3620 ca         1 BO6      -0.050500
      6 C21          7.6350     0.5600    -0.3430 ca         1 BO6      -0.145750
      7 C16          6.2920     0.8140    -0.0360 ca         1 BO6       0.114200
      8 C15          5.3480    -0.2790    -0.0390 ce         1 BO6      -0.265200
      9 C14          4.0200    -0.1490     0.1410 cf         1 BO6      -0.001200
     10 C7           3.0400    -1.2170     0.1330 ca         1 BO6      -0.145800
     11 C6           1.6880    -0.8750     0.1710 ca         1 BO6      -0.003000
     12 C8           3.4060    -2.5810     0.0780 ca         1 BO6      -0.035000
     13 C9           2.4700    -3.5880     0.0500 ca         1 BO6      -0.131000
     14 C2           1.1240    -3.2230     0.0720 ca         1 BO6       0.032800
     15 N1           0.0090    -4.0110     0.0400 na         1 BO6      -0.307500
     16 C3           0.7260    -1.8720     0.1340 ca         1 BO6      -0.109800
     17 C4          -0.7160    -1.8750     0.1330 cc         1 BO6      -0.172800
     18 C10         -1.6830    -0.8820     0.1690 cd         1 BO6      -0.071000
     19 C5          -1.1090    -3.2280     0.0690 cc         1 BO6       0.305900
     20 C13         -2.4530    -3.5990     0.0430 cc         1 BO6      -0.285600
     21 C12         -3.3940    -2.5950     0.0700 cd         1 BO6      -0.103000
     22 C11         -3.0330    -1.2300     0.1280 cd         1 BO6      -0.134000
     23 C22         -4.0170    -0.1650     0.1380 ce         1 BO6      -0.013000
     24 C23         -5.3460    -0.2990    -0.0310 ce         1 BO6      -0.277000
     25 C24         -6.2910     0.7930    -0.0260 cd         1 BO6       0.126000
     26 C25         -7.6410     0.5330    -0.2950 cd         1 BO6      -0.213750
     27 C26         -8.5610     1.5480    -0.3100 cc         1 BO6       0.038500
     28 N27         -8.1970     2.8140    -0.0660 na         1 BO6      -0.370200
     29 C30         -9.1900     3.8900    -0.0640 c3         1 BO6       0.164100
     30 C28         -6.9120     3.1050     0.2040 cc         1 BO6       0.038500
     31 C29         -5.9530     2.1330     0.2320 cd         1 BO6      -0.213750
     32 H17          4.9540     2.4420     0.5160 ha         1 BO6       0.167000
     33 H18          6.6910     4.1550     0.4380 h4         1 BO6       0.180000
     34 H9N          9.4050     4.2040     0.9400 h1         1 BO6       0.093700
     35 H9O         10.0960     3.5610    -0.5640 h1         1 BO6       0.093700
     36 H31          8.8010     4.7640    -0.6360 h1         1 BO6       0.093700
     37 H20          9.5930     1.4050    -0.5990 h4         1 BO6       0.180000
     38 H21          7.9700    -0.4400    -0.5770 ha         1 BO6       0.167000
     39 H2           5.7780    -1.2560    -0.2300 ha         1 BO6       0.205500
     40 H3           3.6050     0.8430     0.2930 ha         1 BO6       0.171000
     41 H6           1.3960     0.1680     0.2200 ha         1 BO6       0.118000
     42 H8           4.4530    -2.8560     0.0650 ha         1 BO6       0.123000
     43 H9           2.7700    -4.6270     0.0100 ha         1 BO6       0.141000
     44 H1           0.0110    -5.0170    -0.0050 hn         1 BO6       0.375000
     45 H10         -1.3950     0.1620     0.2190 ha         1 BO6       0.186000
     46 H13         -2.7480    -4.6390     0.0010 ha         1 BO6       0.209000
     47 H12         -4.4390    -2.8740     0.0520 ha         1 BO6       0.191000
     48 H22         -3.6030     0.8270     0.2850 ha         1 BO6       0.171000
     49 H23         -5.7770    -1.2780    -0.2080 ha         1 BO6       0.205500
     50 H25         -7.9800    -0.4720    -0.5020 ha         1 BO6       0.235000
     51 H26         -9.6050     1.3710    -0.5180 h4         1 BO6       0.248000
     52 H30         -9.3380     4.2440     0.9530 h1         1 BO6       0.093700
     53 H9L         -8.8380     4.7060    -0.6890 h1         1 BO6       0.093700
     54 H9M        -10.1270     3.5140    -0.4590 h1         1 BO6       0.093700
     55 H28         -6.6830     4.1420     0.3970 h4         1 BO6       0.248000
     56 H29         -4.9410     2.4340     0.4600 ha         1 BO6       0.235000
@<TRIPOS>BOND
     1     1     2 ar  
     2     1     7 ar  
     3     1    32 1   
     4     2     3 2   
     5     2    33 1   
     6     3     4 1   
     7     3     5 1   
     8     4    34 1   
     9     4    35 1   
    10     4    36 1   
    11     5     6 ar  
    12     5    37 1   
    13     6     7 ar  
    14     6    38 1   
    15     7     8 1   
    16     8     9 2   
    17     8    39 1   
    18     9    10 1   
    19     9    40 1   
    20    10    11 ar  
    21    10    12 ar  
    22    11    16 ar  
    23    11    41 1   
    24    12    13 ar  
    25    12    42 1   
    26    13    14 ar  
    27    13    43 1   
    28    14    15 1   
    29    14    16 ar  
    30    15    19 2   
    31    15    44 1   
    32    16    17 1   
    33    17    18 2   
    34    17    19 1   
    35    18    22 1   
    36    18    45 1   
    37    19    20 1   
    38    20    21 2   
    39    20    46 1   
    40    21    22 1   
    41    21    47 1   
    42    22    23 2   
    43    23    24 1   
    44    23    48 1   
    45    24    25 2   
    46    24    49 1   
    47    25    26 1   
    48    25    31 1   
    49    26    27 2   
    50    26    50 1   
    51    27    28 1   
    52    27    51 1   
    53    28    29 1   
    54    28    30 1   
    55    29    52 1   
    56    29    53 1   
    57    29    54 1   
    58    30    31 2   
    59    30    55 1   
    60    31    56 1   
@<TRIPOS>SUBSTRUCTURE
     1 BO6         1 TEMP              0 ****  ****    0 ROOT
