@<TRIPOS>MOLECULE
BO6
   56    60     1     0     0
SMALL
No Charge or Current Charge


@<TRIPOS>ATOM
      1 C17          5.9660     2.2260     0.1990 ca         1 BO6      -0.145750
      2 C18          6.9410     3.2410     0.1590 ca         1 BO6       0.000200
      3 N19          8.2640     2.9520    -0.1810 na         1 BO6       0.041300
      4 C31          9.2790     4.0190    -0.2130 c3         1 BO6       0.015900
      5 C20          8.6160     1.6310    -0.4630 ca         1 BO6      -0.050500
      6 C21          7.6530     0.6040    -0.4270 ca         1 BO6      -0.145750
      7 C16          6.3140     0.8930    -0.1000 ca         1 BO6       0.114200
      8 C15          5.3130    -0.2120    -0.0670 ce         1 BO6      -0.265200
      9 C14          3.9520    -0.1430     0.0250 cf         1 BO6      -0.001200
     10 C7           2.9560    -1.2370     0.0560 ca         1 BO6      -0.145800
     11 C6           1.5810    -0.9060     0.1410 ca         1 BO6      -0.003000
     12 C8           3.3430    -2.6070     0.0040 ca         1 BO6      -0.035000
     13 C9           2.3800    -3.6410     0.0350 ca         1 BO6      -0.131000
     14 C2           1.0310    -3.2880     0.1190 ca         1 BO6       0.032800
     15 N1          -0.0880    -4.1330     0.1630 na         1 BO6      -0.307500
     16 C3           0.6520    -1.9520     0.1700 ca         1 BO6      -0.109800
     17 C4          -0.7800    -1.9730     0.2500 cc         1 BO6      -0.172800
     18 C10         -1.6530    -0.9150     0.3240 cd         1 BO6      -0.071000
     19 C5          -1.2010    -3.3090     0.2430 cc         1 BO6       0.305900
     20 C13         -2.5700    -3.6720     0.3160 cc         1 BO6      -0.285600
     21 C12         -3.5070    -2.6510     0.3930 cd         1 BO6      -0.103000
     22 C11         -3.0650    -1.2570     0.3920 cd         1 BO6      -0.134000
     23 C22         -3.9890    -0.2340     0.4680 ce         1 BO6      -0.013000
     24 C23         -5.3870    -0.3230     0.0090 ce         1 BO6      -0.277000
     25 C24         -6.2820     0.7240    -0.0280 cd         1 BO6       0.126000
     26 C25         -7.3480     0.7200    -0.9570 cd         1 BO6      -0.213750
     27 C26         -8.2610     1.7530    -1.0240 cc         1 BO6       0.038500
     28 N27         -8.1240     2.8400    -0.1250 na         1 BO6      -0.370200
     29 C30         -9.0940     3.9620    -0.1810 c3         1 BO6       0.164100
     30 C28         -7.0710     2.8740     0.8220 cc         1 BO6       0.038500
     31 C29         -6.1760     1.8230     0.8560 cd         1 BO6      -0.213750
     32 H17          4.9480     2.4870     0.4740 ha         1 BO6       0.167000
     33 H18          6.6910     4.2760     0.3960 h4         1 BO6       0.180000
     34 H9N          9.7310     4.1240     0.7810 h1         1 BO6       0.093700
     35 H9O         10.0610     3.7740    -0.9410 h1         1 BO6       0.093700
     36 H31          8.8160     4.9710    -0.5010 h1         1 BO6       0.093700
     37 H20          9.6580     1.4220    -0.7120 h4         1 BO6       0.180000
     38 H21          7.9520    -0.4170    -0.6560 ha         1 BO6       0.167000
     39 H2           5.7690    -1.1980    -0.1350 ha         1 BO6       0.205500
     40 H3           3.5040     0.8500     0.0770 ha         1 BO6       0.171000
     41 H6           1.2490     0.1290     0.1830 ha         1 BO6       0.118000
     42 H8           4.3900    -2.8860    -0.0600 ha         1 BO6       0.123000
     43 H9           2.6830    -4.6850    -0.0050 ha         1 BO6       0.141000
     44 H1          -0.0900    -5.1440     0.1410 hn         1 BO6       0.375000
     45 H10         -1.3010     0.1130     0.3270 ha         1 BO6       0.186000
     46 H13         -2.8520    -4.7210     0.3150 ha         1 BO6       0.209000
     47 H12         -4.5640    -2.9000     0.4660 ha         1 BO6       0.191000
     48 H22         -3.5760     0.7690     0.5850 ha         1 BO6       0.171000
     49 H23         -5.6280    -1.1700    -0.6330 ha         1 BO6       0.205500
     50 H25         -7.4560    -0.1110    -1.6470 ha         1 BO6       0.235000
     51 H26         -9.0870     1.7810    -1.7320 h4         1 BO6       0.248000
     52 H30         -9.2170     4.4120     0.8120 h1         1 BO6       0.093700
     53 H9L         -8.7350     4.7300    -0.8770 h1         1 BO6       0.093700
     54 H9M        -10.0740     3.6050    -0.5210 h1         1 BO6       0.093700
     55 H28         -7.0150     3.7330     1.4890 h4         1 BO6       0.248000
     56 H29         -5.3830     1.8470     1.5960 ha         1 BO6       0.235000
@<TRIPOS>BOND
     1     1     2 ar  
     2     1     7 ar  
     3     1    32 1   
     4     2     3 2   
     5     2    33 1   
     6     3     4 1   
     7     3     5 1   
     8     4    34 1   
     9     4    35 1   
    10     4    36 1   
    11     5     6 ar  
    12     5    37 1   
    13     6     7 ar  
    14     6    38 1   
    15     7     8 1   
    16     8     9 2   
    17     8    39 1   
    18     9    10 1   
    19     9    40 1   
    20    10    11 ar  
    21    10    12 ar  
    22    11    16 ar  
    23    11    41 1   
    24    12    13 ar  
    25    12    42 1   
    26    13    14 ar  
    27    13    43 1   
    28    14    15 1   
    29    14    16 ar  
    30    15    19 2   
    31    15    44 1   
    32    16    17 1   
    33    17    18 2   
    34    17    19 1   
    35    18    22 1   
    36    18    45 1   
    37    19    20 1   
    38    20    21 2   
    39    20    46 1   
    40    21    22 1   
    41    21    47 1   
    42    22    23 2   
    43    23    24 1   
    44    23    48 1   
    45    24    25 2   
    46    24    49 1   
    47    25    26 1   
    48    25    31 1   
    49    26    27 2   
    50    26    50 1   
    51    27    28 1   
    52    27    51 1   
    53    28    29 1   
    54    28    30 1   
    55    29    52 1   
    56    29    53 1   
    57    29    54 1   
    58    30    31 2   
    59    30    55 1   
    60    31    56 1   
@<TRIPOS>SUBSTRUCTURE
     1 BO6         1 TEMP              0 ****  ****    0 ROOT
