@<TRIPOS>MOLECULE
BO7
   22    22     1     0     0
SMALL
No Charge or Current Charge


@<TRIPOS>ATOM
      1 O11          0.0090    -2.2150    -1.1530 o          1 BO7      -0.712500
      2 C12          0.0020    -1.6710    -0.0570 c          1 BO7       0.742600
      3 C13          0.0030    -0.1800    -0.0130 ca         1 BO7      -0.166600
      4 C18         -1.2170     0.5210    -0.0000 ca         1 BO7       0.165100
      5 O19         -2.3950    -0.2020    -0.0300 os         1 BO7      -0.306100
      6 C22         -3.6860     0.4290    -0.0210 c3         1 BO7       0.155400
      7 C17         -1.2100     1.9330     0.0420 ca         1 BO7      -0.246000
      8 C16          0.0050     2.6320     0.0710 ca         1 BO7      -0.082000
      9 C15          1.2190     1.9300     0.0590 ca         1 BO7      -0.246000
     10 C14          1.2240     0.5180     0.0170 ca         1 BO7       0.165100
     11 O20          2.4010    -0.2070     0.0040 os         1 BO7      -0.306100
     12 C21          3.6930     0.4220     0.0320 c3         1 BO7       0.155400
     13 OXT         -0.0060    -2.2790     1.0050 o          1 BO7      -0.712500
     14 H17         -2.1340     2.5030     0.0520 ha         1 BO7       0.093000
     15 H221        -3.8200     1.0280     0.8890 h1         1 BO7       0.021367
     16 H222        -3.8070     1.0810    -0.8950 h1         1 BO7       0.021367
     17 H223        -4.4780    -0.3300    -0.0490 h1         1 BO7       0.021367
     18 H16          0.0060     3.7190     0.1040 ha         1 BO7       0.080000
     19 H15          2.1440     2.4990     0.0830 ha         1 BO7       0.093000
     20 H211         3.8270     1.0740    -0.8410 h1         1 BO7       0.021367
     21 H212         3.8150     1.0200     0.9440 h1         1 BO7       0.021367
     22 H213         4.4840    -0.3380     0.0150 h1         1 BO7       0.021367
@<TRIPOS>BOND
     1     1     2 1   
     2     2     3 1   
     3     2    13 1   
     4     3     4 ar  
     5     3    10 ar  
     6     4     5 1   
     7     4     7 ar  
     8     5     6 1   
     9     6    15 1   
    10     6    16 1   
    11     6    17 1   
    12     7     8 ar  
    13     7    14 1   
    14     8     9 ar  
    15     8    18 1   
    16     9    10 ar  
    17     9    19 1   
    18    10    11 1   
    19    11    12 1   
    20    12    20 1   
    21    12    21 1   
    22    12    22 1   
@<TRIPOS>SUBSTRUCTURE
     1 BO7         1 TEMP              0 ****  ****    0 ROOT
