@<TRIPOS>MOLECULE
BO7
   22    22     1     0     0
SMALL
abcg2


@<TRIPOS>ATOM
      1 O11          0.0320    -2.2040    -1.1880 o          1 BO7      -0.712500
      2 C12          0.0010    -1.6880    -0.0580 c          1 BO7       0.742600
      3 C13          0.0030    -0.1640    -0.0170 ca         1 BO7      -0.166600
      4 C18         -1.1960     0.5450    -0.0030 ca         1 BO7       0.165100
      5 O19         -2.3140    -0.2140    -0.0350 os         1 BO7      -0.306100
      6 C22         -3.5680     0.4330    -0.0150 c3         1 BO7       0.155400
      7 C17         -1.2060     1.9400     0.0390 ca         1 BO7      -0.246000
      8 C16          0.0050     2.6150     0.0680 ca         1 BO7      -0.082000
      9 C15          1.2150     1.9370     0.0560 ca         1 BO7      -0.246000
     10 C14          1.2030     0.5420     0.0130 ca         1 BO7       0.165100
     11 O20          2.3200    -0.2190    -0.0000 os         1 BO7      -0.306100
     12 C21          3.5750     0.4260     0.0330 c3         1 BO7       0.155400
     13 OXT         -0.0320    -2.2620     1.0440 o          1 BO7      -0.712500
     14 H17         -2.1280     2.5040     0.0510 ha         1 BO7       0.093000
     15 H221        -3.7130     1.0190     0.8960 h1         1 BO7       0.021367
     16 H222        -3.7050     1.0900    -0.8790 h1         1 BO7       0.021367
     17 H223        -4.3220    -0.3500    -0.0510 h1         1 BO7       0.021367
     18 H16          0.0060     3.6970     0.1000 ha         1 BO7       0.080000
     19 H15          2.1380     2.5000     0.0810 ha         1 BO7       0.093000
     20 H211         3.7240     1.0780    -0.8320 h1         1 BO7       0.021367
     21 H212         3.7090     1.0180     0.9430 h1         1 BO7       0.021367
     22 H213         4.3290    -0.3570     0.0120 h1         1 BO7       0.021367
@<TRIPOS>BOND
     1     1     2 1   
     2     2     3 1   
     3     2    13 1   
     4     3     4 ar  
     5     3    10 ar  
     6     4     5 1   
     7     4     7 ar  
     8     5     6 1   
     9     6    15 1   
    10     6    16 1   
    11     6    17 1   
    12     7     8 ar  
    13     7    14 1   
    14     8     9 ar  
    15     8    18 1   
    16     9    10 ar  
    17     9    19 1   
    18    10    11 1   
    19    11    12 1   
    20    12    20 1   
    21    12    21 1   
    22    12    22 1   
@<TRIPOS>SUBSTRUCTURE
     1 BO7         1 TEMP              0 ****  ****    0 ROOT
