@<TRIPOS>MOLECULE
BOA
   14    15     1     0     0
SMALL
bcc


@<TRIPOS>ATOM
      1 O6           2.6760    -0.2050    -1.4120 oh         1 BOA      -0.573300
      2 C6           1.4080    -0.1170    -1.0570 ca         1 BOA       0.721600
      3 N1           1.1750    -0.0830     0.2420 nb         1 BOA      -0.718000
      4 C2          -0.0790     0.0060     0.6530 ca         1 BOA       0.737200
      5 BR          -0.2910     0.0460     2.5360 br         1 BOA      -0.099200
      6 C5           0.3180    -0.0600    -1.9220 ca         1 BOA      -0.418800
      7 C4          -0.9610     0.0350    -1.3620 ca         1 BOA       0.587300
      8 N3          -1.1780     0.0700    -0.0420 nb         1 BOA      -0.633000
      9 N7           0.1110    -0.0690    -3.2730 na         1 BOA      -0.241300
     10 C8          -1.2200     0.0180    -3.4540 cc         1 BOA       0.442700
     11 N9          -1.9020     0.0820    -2.3380 nd         1 BOA      -0.627700
     12 H6           2.7920    -0.2200    -2.3700 ho         1 BOA       0.437000
     13 H7           0.7980    -0.1310    -4.0090 hn         1 BOA       0.311700
     14 H8          -1.6480     0.0300    -4.4450 h5         1 BOA       0.072800
@<TRIPOS>BOND
     1     1     2 1   
     2     1    12 1   
     3     2     3 ar  
     4     2     6 ar  
     5     3     4 ar  
     6     4     5 1   
     7     4     8 ar  
     8     6     7 ar  
     9     6     9 1   
    10     7     8 ar  
    11     7    11 1   
    12     9    10 1   
    13     9    13 1   
    14    10    11 2   
    15    10    14 1   
@<TRIPOS>SUBSTRUCTURE
     1 BOA         1 TEMP              0 ****  ****    0 ROOT
