@<TRIPOS>MOLECULE
BOA
   14    15     1     0     0
SMALL
No Charge or Current Charge


@<TRIPOS>ATOM
      1 O6           2.6660    -0.2060    -1.5150 oh         1 BOA      -0.612300
      2 C6           1.4000    -0.1160    -1.0310 ca         1 BOA       0.393300
      3 N1           1.2270    -0.0840     0.3040 nb         1 BOA      -0.192000
      4 C2          -0.0520     0.0060     0.7400 ca         1 BOA       0.211200
      5 Br          -0.3050     0.0520     2.6340 br         1 BOA      -0.099200
      6 C5           0.2850    -0.0570    -1.8810 ca         1 BOA      -0.288200
      7 C4          -0.9760     0.0340    -1.3530 ca         1 BOA       0.259000
      8 N3          -1.1710     0.0670    -0.0210 nb         1 BOA      -0.107000
      9 N7           0.1580    -0.0690    -3.2490 na         1 BOA      -0.291600
     10 C8          -1.2030     0.0150    -3.5230 cc         1 BOA       0.442700
     11 N9          -1.9190     0.0800    -2.3800 nd         1 BOA      -0.627700
     12 H6           2.5990    -0.2170    -2.4900 ho         1 BOA       0.476000
     13 H7           0.8840    -0.1280    -3.9540 hn         1 BOA       0.362000
     14 H8          -1.5950     0.0250    -4.5340 h5         1 BOA       0.072800
@<TRIPOS>BOND
     1     1     2 1   
     2     1    12 1   
     3     2     3 ar  
     4     2     6 ar  
     5     3     4 ar  
     6     4     5 1   
     7     4     8 ar  
     8     6     7 ar  
     9     6     9 1   
    10     7     8 ar  
    11     7    11 1   
    12     9    10 1   
    13     9    13 1   
    14    10    11 2   
    15    10    14 1   
@<TRIPOS>SUBSTRUCTURE
     1 BOA         1 TEMP              0 ****  ****    0 ROOT
