@<TRIPOS>MOLECULE
BOB
   64    63     1     0     0
SMALL
No Charge or Current Charge


@<TRIPOS>ATOM
      1 C1          24.4550    50.7190    62.1650 c          1 BOB       0.707000
      2 N1          25.7090    52.1130    60.3250 n8         1 BOB      -0.977200
      3 C2          29.0140    50.5670    67.8790 c          1 BOB       0.569100
      4 N2          28.2470    50.9090    65.5220 ns         1 BOB      -0.479900
      5 C3          31.3930    50.3420    70.8810 c          1 BOB       0.705000
      6 O11         24.0870    51.4540    63.0740 o          1 BOB      -0.731500
      7 O12         23.8100    49.7450    61.7970 o          1 BOB      -0.731500
      8 O31         31.2820    50.9770    71.9200 o          1 BOB      -0.736500
      9 O32         32.4710    50.0040    70.4100 o          1 BOB      -0.736500
     10 C40         31.7060    54.1040    65.9530 c3         1 BOB       0.105300
     11 C42         32.4660    52.7520    66.1920 c3         1 BOB       0.167300
     12 C43         33.9830    52.7680    65.8520 c3         1 BOB      -0.107400
     13 C44         34.8760    53.7540    66.6510 c3         1 BOB      -0.074400
     14 C45         36.3940    53.5410    66.4430 c3         1 BOB      -0.075400
     15 C46         36.8860    53.8030    65.0000 c3         1 BOB      -0.079400
     16 C47         38.4130    53.6630    64.8510 c3         1 BOB      -0.087100
     17 C54         31.7240    55.1170    67.1370 c3         1 BOB      -0.073400
     18 C55         31.1390    56.4980    66.7770 c3         1 BOB       0.155600
     19 O56         31.2850    57.3890    67.8890 oh         1 BOB      -0.666000
     20 O60         32.2820    52.2630    67.5320 oh         1 BOB      -0.654000
     21 CA1         25.8050    51.0540    61.3920 c3         1 BOB       0.025500
     22 CA2         29.2420    51.3190    66.5420 c3         1 BOB       0.032700
     23 CA3         30.1030    49.9860    70.0930 c3         1 BOB      -0.047000
     24 CB1         26.9810    51.3830    62.3550 c3         1 BOB      -0.044400
     25 CB2         29.2100    52.8500    66.7790 c3         1 BOB       0.069600
     26 CD1         28.5350    50.6000    64.2110 c          1 BOB       0.605100
     27 OE1         29.6800    50.5660    63.7800 o          1 BOB      -0.653100
     28 CG1         27.3210    50.2430    63.3470 c3         1 BOB      -0.145400
     29 SG2         29.9540    53.8040    65.3650 ss         1 BOB      -0.466000
     30 HN1         26.5970    52.1610    59.8140 hn         1 BOB       0.362000
     31 HN1A        25.0280    51.8130    59.6160 hn         1 BOB       0.362000
     32 HN2         27.2740    50.8520    65.8000 hn         1 BOB       0.324500
     33 HN3         30.8930    51.1520    68.4550 hn         1 BOB       0.348500
     34 H40         32.2120    54.5940    65.1110 h1         1 BOB       0.064700
     35 H42         32.0340    52.0290    65.4860 h1         1 BOB       0.067700
     36 H43         34.3730    51.7510    65.9840 hc         1 BOB       0.041700
     37 H43A        34.0840    52.9910    64.7830 hc         1 BOB       0.041700
     38 H44         34.6310    54.7830    66.3620 hc         1 BOB       0.050200
     39 H44A        34.6600    53.6610    67.7220 hc         1 BOB       0.050200
     40 H45         36.9320    54.2120    67.1250 hc         1 BOB       0.033700
     41 H45A        36.6600    52.5190    66.7390 hc         1 BOB       0.033700
     42 H46         36.4030    53.1000    64.3110 hc         1 BOB       0.038700
     43 H46A        36.5890    54.8130    64.6910 hc         1 BOB       0.038700
     44 H47         38.7150    53.8540    63.8150 hc         1 BOB       0.025033
     45 H47A        38.9340    54.3800    65.4980 hc         1 BOB       0.025033
     46 H47B        38.7380    52.6510    65.1230 hc         1 BOB       0.025033
     47 H54         31.1740    54.7120    67.9930 hc         1 BOB       0.074700
     48 H54A        32.7490    55.2650    67.4840 hc         1 BOB       0.074700
     49 H55         31.6670    56.8980    65.9010 h1         1 BOB       0.019700
     50 H55A        30.0780    56.3960    66.5150 h1         1 BOB       0.019700
     51 HO56        30.8930    58.2490    67.6200 ho         1 BOB       0.426000
     52 HO60        33.1640    51.9710    67.8510 ho         1 BOB       0.456000
     53 HA1         26.0880    50.1360    60.8600 h1         1 BOB       0.001700
     54 HA2         30.2420    51.0270    66.2020 h1         1 BOB       0.093700
     55 HA3         30.0600    48.8960    69.9660 h1         1 BOB       0.033700
     56 HA3A        29.2270    50.3080    70.6720 h1         1 BOB       0.033700
     57 HB1         27.8770    51.6050    61.7610 hc         1 BOB       0.039700
     58 HB1A        26.7490    52.2950    62.9210 hc         1 BOB       0.039700
     59 HB2         28.1680    53.1690    66.9130 h1         1 BOB       0.080700
     60 HB2A        29.7430    53.0970    67.7040 h1         1 BOB       0.080700
     61 HG1         26.4510    50.0610    63.9880 hc         1 BOB       0.068200
     62 HG1A        27.5560    49.3400    62.7720 hc         1 BOB       0.068200
     63 O2          27.9850    49.9550    68.1430 o          1 BOB      -0.654100
     64 N3          30.0700    50.6330    68.7620 ns         1 BOB      -0.466900
@<TRIPOS>BOND
     1     1     6 1   
     2     1     7 1   
     3     1    21 1   
     4     2    21 1   
     5     2    30 1   
     6     2    31 1   
     7     3    22 1   
     8     3    63 2   
     9     3    64 1   
    10     4    22 1   
    11     4    26 1   
    12     4    32 1   
    13     5     8 1   
    14     5     9 1   
    15     5    23 1   
    16    10    11 1   
    17    10    17 1   
    18    10    29 1   
    19    10    34 1   
    20    11    12 1   
    21    11    20 1   
    22    11    35 1   
    23    12    13 1   
    24    12    36 1   
    25    12    37 1   
    26    13    14 1   
    27    13    38 1   
    28    13    39 1   
    29    14    15 1   
    30    14    40 1   
    31    14    41 1   
    32    15    16 1   
    33    15    42 1   
    34    15    43 1   
    35    16    44 1   
    36    16    45 1   
    37    16    46 1   
    38    17    18 1   
    39    17    47 1   
    40    17    48 1   
    41    18    19 1   
    42    18    49 1   
    43    18    50 1   
    44    19    51 1   
    45    20    52 1   
    46    21    24 1   
    47    21    53 1   
    48    22    25 1   
    49    22    54 1   
    50    23    55 1   
    51    23    56 1   
    52    23    64 1   
    53    24    28 1   
    54    24    57 1   
    55    24    58 1   
    56    25    29 1   
    57    25    59 1   
    58    25    60 1   
    59    26    27 2   
    60    26    28 1   
    61    28    61 1   
    62    28    62 1   
    63    33    64 1   
@<TRIPOS>SUBSTRUCTURE
     1 BOB         1 TEMP              0 ****  ****    0 ROOT
