@<TRIPOS>MOLECULE
BOB
   64    63     1     0     0
SMALL
abcg2


@<TRIPOS>ATOM
      1 C1          25.6980    51.6190    61.4150 c          1 BOB       0.707000
      2 N1          27.4990    50.6960    59.9530 n8         1 BOB      -0.977200
      3 C2          28.7010    50.7670    68.1380 c          1 BOB       0.569100
      4 N2          28.1240    51.3700    65.8110 ns         1 BOB      -0.479900
      5 C3          30.9760    50.0320    71.0250 c          1 BOB       0.705000
      6 O11         25.9430    52.7920    61.0420 o          1 BOB      -0.731500
      7 O12         24.6310    51.2190    61.9520 o          1 BOB      -0.731500
      8 O31         30.9700    49.5100    72.1640 o          1 BOB      -0.736500
      9 O32         31.9290    50.6240    70.4630 o          1 BOB      -0.736500
     10 C40         31.4930    54.2420    66.3530 c3         1 BOB       0.105300
     11 C42         32.1680    52.8880    66.0720 c3         1 BOB       0.167300
     12 C43         33.5630    53.0010    65.4500 c3         1 BOB      -0.107400
     13 C44         34.6360    53.7430    66.2460 c3         1 BOB      -0.074400
     14 C45         36.0320    53.6220    65.6290 c3         1 BOB      -0.075400
     15 C46         36.1820    54.2970    64.2660 c3         1 BOB      -0.079400
     16 C47         37.6070    54.2190    63.7220 c3         1 BOB      -0.087100
     17 C54         31.8350    54.8510    67.7160 c3         1 BOB      -0.073400
     18 C55         31.6360    56.3530    67.7490 c3         1 BOB       0.155600
     19 O56         31.9470    56.8110    69.0710 oh         1 BOB      -0.666000
     20 O60         32.1790    52.1330    67.2920 oh         1 BOB      -0.654000
     21 CA1         26.8160    50.5560    61.2480 c3         1 BOB       0.025500
     22 CA2         29.0340    51.6190    66.9010 c3         1 BOB       0.032700
     23 CA3         29.6500    49.9180    70.2430 c3         1 BOB      -0.047000
     24 CB1         27.8590    50.6930    62.3610 c3         1 BOB      -0.044400
     25 CB2         29.0190    53.1010    67.2950 c3         1 BOB       0.069600
     26 CD1         28.3860    50.5020    64.8130 c          1 BOB       0.605100
     27 OE1         29.4360    49.8580    64.7530 o          1 BOB      -0.653100
     28 CG1         27.3090    50.3820    63.7550 c3         1 BOB      -0.145400
     29 SG2         29.6760    54.2320    66.0310 ss         1 BOB      -0.466000
     30 HN1         28.1080    49.8950    59.8130 hn         1 BOB       0.362000
     31 HN1A        26.8180    50.6660    59.2010 hn         1 BOB       0.362000
     32 HN2         27.2210    51.8170    65.8330 hn         1 BOB       0.324500
     33 HN3         30.6490    50.9660    68.7360 hn         1 BOB       0.348500
     34 H40         31.8270    54.9240    65.5660 h1         1 BOB       0.064700
     35 H42         31.5510    52.3610    65.3380 h1         1 BOB       0.067700
     36 H43         33.9090    51.9770    65.2610 hc         1 BOB       0.041700
     37 H43A        33.4340    53.4610    64.4660 hc         1 BOB       0.041700
     38 H44         34.3770    54.8030    66.3250 hc         1 BOB       0.050200
     39 H44A        34.6630    53.3480    67.2640 hc         1 BOB       0.050200
     40 H45         36.7600    54.0620    66.3190 hc         1 BOB       0.033700
     41 H45A        36.2960    52.5620    65.5380 hc         1 BOB       0.033700
     42 H46         35.4970    53.8400    63.5470 hc         1 BOB       0.038700
     43 H46A        35.8800    55.3470    64.3540 hc         1 BOB       0.038700
     44 H47         37.6930    54.7140    62.7520 hc         1 BOB       0.025033
     45 H47A        38.3140    54.6970    64.4060 hc         1 BOB       0.025033
     46 H47B        37.9200    53.1790    63.5960 hc         1 BOB       0.025033
     47 H54         31.2360    54.3890    68.5010 hc         1 BOB       0.074700
     48 H54A        32.8740    54.6300    67.9590 hc         1 BOB       0.074700
     49 H55         32.2970    56.8300    67.0160 h1         1 BOB       0.019700
     50 H55A        30.6040    56.6080    67.4920 h1         1 BOB       0.019700
     51 HO56        31.8100    57.7660    69.1000 ho         1 BOB       0.426000
     52 HO60        32.6330    51.2970    67.1230 ho         1 BOB       0.456000
     53 HA1         26.3330    49.5760    61.3520 h1         1 BOB       0.001700
     54 HA2         30.0280    51.3420    66.5670 h1         1 BOB       0.093700
     55 HA3         29.4080    48.8580    70.1240 h1         1 BOB       0.033700
     56 HA3A        28.8510    50.3610    70.8430 h1         1 BOB       0.033700
     57 HB1         28.6870    50.0120    62.1490 hc         1 BOB       0.039700
     58 HB1A        28.2630    51.7090    62.3370 hc         1 BOB       0.039700
     59 HB2         27.9920    53.4220    67.4770 h1         1 BOB       0.080700
     60 HB2A        29.5740    53.2450    68.2190 h1         1 BOB       0.080700
     61 HG1         26.4680    51.0350    63.9880 hc         1 BOB       0.068200
     62 HG1A        26.9390    49.3530    63.7810 hc         1 BOB       0.068200
     63 O2          27.5640    50.3400    68.3530 o          1 BOB      -0.654100
     64 N3          29.7390    50.5750    68.9560 ns         1 BOB      -0.466900
@<TRIPOS>BOND
     1     1     6 1   
     2     1     7 1   
     3     1    21 1   
     4     2    21 1   
     5     2    30 1   
     6     2    31 1   
     7     3    22 1   
     8     3    63 2   
     9     3    64 1   
    10     4    22 1   
    11     4    26 1   
    12     4    32 1   
    13     5     8 1   
    14     5     9 1   
    15     5    23 1   
    16    10    11 1   
    17    10    17 1   
    18    10    29 1   
    19    10    34 1   
    20    11    12 1   
    21    11    20 1   
    22    11    35 1   
    23    12    13 1   
    24    12    36 1   
    25    12    37 1   
    26    13    14 1   
    27    13    38 1   
    28    13    39 1   
    29    14    15 1   
    30    14    40 1   
    31    14    41 1   
    32    15    16 1   
    33    15    42 1   
    34    15    43 1   
    35    16    44 1   
    36    16    45 1   
    37    16    46 1   
    38    17    18 1   
    39    17    47 1   
    40    17    48 1   
    41    18    19 1   
    42    18    49 1   
    43    18    50 1   
    44    19    51 1   
    45    20    52 1   
    46    21    24 1   
    47    21    53 1   
    48    22    25 1   
    49    22    54 1   
    50    23    55 1   
    51    23    56 1   
    52    23    64 1   
    53    24    28 1   
    54    24    57 1   
    55    24    58 1   
    56    25    29 1   
    57    25    59 1   
    58    25    60 1   
    59    26    27 2   
    60    26    28 1   
    61    28    61 1   
    62    28    62 1   
    63    33    64 1   
@<TRIPOS>SUBSTRUCTURE
     1 BOB         1 TEMP              0 ****  ****    0 ROOT
