@<TRIPOS>MOLECULE
BOD
   50    53     1     0     0
SMALL
No Charge or Current Charge


@<TRIPOS>ATOM
      1 C18          5.4050    -0.6610    -0.9610 ca         1 BOD       0.433900
      2 C17          7.0840    -1.3860     0.3700 ca         1 BOD       0.403900
      3 C16          5.2290    -0.5820     1.4280 ca         1 BOD       0.153900
      4 C12          2.1710    -0.5900    -0.4240 c6         1 BOD       0.174800
      5 C11          0.9490     0.2590    -0.9130 c6         1 BOD       0.197800
      6 C9          -0.8290     1.7670     0.0580 ca         1 BOD       0.302000
      7 N5           6.6320    -1.1870    -0.8710 nb         1 BOD      -0.331000
      8 C13          2.8410     1.2410     1.1090 c6         1 BOD       0.174800
      9 C8          -1.0880     3.1490    -0.0200 ca         1 BOD      -0.170000
     10 C6          -3.4810     2.7200    -0.0150 ca         1 BOD      -0.137000
     11 N7           8.3210    -1.9210     0.4670 nv         1 BOD      -1.049900
     12 C4          -4.2950    -0.9650    -0.3790 ca         1 BOD       0.153900
     13 N1          -5.3220    -1.8350    -0.3370 nb         1 BOD      -0.221500
     14 C2          -5.6630     0.7020     0.6530 ca         1 BOD       0.153900
     15 C3          -4.4000     0.3580     0.1130 cp         1 BOD      -0.184000
     16 N4           6.4630    -1.1180     1.5260 nb         1 BOD      -0.275000
     17 N6           4.9820    -0.4330    -2.2370 nv         1 BOD      -1.064900
     18 C15          4.6180    -0.3210     0.1780 ca         1 BOD      -0.013000
     19 N3           3.3050     0.2510     0.0820 nh         1 BOD      -0.762400
     20 C14          1.6240     2.0990     0.6250 c6         1 BOD       0.197800
     21 N2           0.4950     1.2660     0.0990 nh         1 BOD      -0.791400
     22 C7          -2.4090     3.6240    -0.0580 ca         1 BOD      -0.076000
     23 C10         -1.9150     0.8730     0.1010 ca         1 BOD      -0.148000
     24 C5          -3.2580     1.3240     0.0650 cp         1 BOD       0.008000
     25 N           -6.6910    -0.1660     0.6980 nb         1 BOD      -0.221500
     26 C1          -6.4860    -1.4030     0.2010 ca         1 BOD       0.352300
     27 O           -7.5620    -2.2650     0.2630 os         1 BOD      -0.432300
     28 C           -7.4760    -3.6180    -0.2330 c3         1 BOD       0.162900
     29 H1           4.7230    -0.3680     2.3680 h4         1 BOD       0.017100
     30 H2           1.8280    -1.2600     0.3790 h1         1 BOD       0.044700
     31 H3           2.5030    -1.2300    -1.2540 h1         1 BOD       0.044700
     32 H4           1.2330     0.7780    -1.8400 h1         1 BOD       0.043200
     33 H5           0.1330    -0.4310    -1.1710 h1         1 BOD       0.043200
     34 H6           2.5480     0.7100     2.0270 h1         1 BOD       0.044700
     35 H7           3.6610     1.9230     1.3750 h1         1 BOD       0.044700
     36 H8          -0.2710     3.8620    -0.0650 ha         1 BOD       0.114000
     37 H9          -4.4950     3.1100    -0.0590 ha         1 BOD       0.116000
     38 H10          8.6180    -2.2930     1.3660 hn         1 BOD       0.486500
     39 H11          8.7370    -2.3380    -0.3620 hn         1 BOD       0.486500
     40 H13         -5.8520     1.6880     1.0710 h4         1 BOD       0.028600
     41 H14          4.1880     0.1960    -2.3180 hn         1 BOD       0.499500
     42 H15          5.6870    -0.3660    -2.9650 hn         1 BOD       0.499500
     43 H16          1.2820     2.7130     1.4710 h1         1 BOD       0.043200
     44 H17          1.9720     2.7870    -0.1600 h1         1 BOD       0.043200
     45 H18         -2.6010     4.6930    -0.1250 ha         1 BOD       0.113000
     46 H19         -1.7100    -0.1890     0.1900 ha         1 BOD       0.116000
     47 H20         -8.4320    -4.1370    -0.0930 h1         1 BOD       0.050033
     48 H21         -7.2380    -3.6280    -1.3050 h1         1 BOD       0.050033
     49 H22         -6.7010    -4.1830     0.3010 h1         1 BOD       0.050033
     50 H12         -3.3750    -1.3340    -0.8280 h4         1 BOD       0.028600
@<TRIPOS>BOND
     1     1     7 ar  
     2     1    17 1   
     3     1    18 ar  
     4     2     7 ar  
     5     2    11 1   
     6     2    16 ar  
     7     3    16 ar  
     8     3    18 ar  
     9     3    29 1   
    10     4     5 1   
    11     4    19 1   
    12     4    30 1   
    13     4    31 1   
    14     5    21 1   
    15     5    32 1   
    16     5    33 1   
    17     6     9 ar  
    18     6    21 1   
    19     6    23 ar  
    20     8    19 1   
    21     8    20 1   
    22     8    34 1   
    23     8    35 1   
    24     9    22 ar  
    25     9    36 1   
    26    10    22 ar  
    27    10    24 ar  
    28    10    37 1   
    29    11    38 1   
    30    11    39 1   
    31    12    13 ar  
    32    12    15 ar  
    33    12    50 1   
    34    13    26 ar  
    35    14    15 ar  
    36    14    25 ar  
    37    14    40 1   
    38    15    24 1   
    39    17    41 1   
    40    17    42 1   
    41    18    19 1   
    42    20    21 1   
    43    20    43 1   
    44    20    44 1   
    45    22    45 1   
    46    23    24 ar  
    47    23    46 1   
    48    25    26 ar  
    49    26    27 1   
    50    27    28 1   
    51    28    47 1   
    52    28    48 1   
    53    28    49 1   
@<TRIPOS>SUBSTRUCTURE
     1 BOD         1 TEMP              0 ****  ****    0 ROOT
