@<TRIPOS>MOLECULE
BOD
   50    53     1     0     0
SMALL
bcc


@<TRIPOS>ATOM
      1 C18          5.4140    -0.3750    -0.9330 ca         1 BOD       0.762200
      2 C17          6.8870    -1.4270     0.4440 ca         1 BOD       0.929900
      3 C16          4.8760    -0.8890     1.3060 ca         1 BOD       0.482200
      4 C12          2.1030    -0.6790    -0.1690 c6         1 BOD       0.174800
      5 C11          0.8480     0.0140    -0.6600 c6         1 BOD       0.197800
      6 C9          -0.7660     1.6740     0.1020 ca         1 BOD       0.163600
      7 N5           6.6130    -0.9220    -0.7590 nb         1 BOD      -0.857000
      8 C13          2.8850     1.3900     0.7510 c6         1 BOD       0.174800
      9 C8          -1.0280     3.0470     0.0170 ca         1 BOD      -0.188000
     10 C6          -3.4120     2.6500     0.0220 ca         1 BOD      -0.155000
     11 N7           8.1300    -1.9410     0.6170 nv         1 BOD      -0.939500
     12 C4          -4.2670    -0.9060    -0.4890 ca         1 BOD       0.482200
     13 N1          -5.2740    -1.7670    -0.4500 nb         1 BOD      -0.747500
     14 C2          -5.4810     0.5930     0.8380 ca         1 BOD       0.482200
     15 C3          -4.2960     0.3260     0.1510 cp         1 BOD      -0.314600
     16 N4           6.0730    -1.4440     1.5010 nb         1 BOD      -0.801000
     17 N6           5.0960     0.1150    -2.1390 nv         1 BOD      -0.954500
     18 C15          4.4690    -0.3260     0.1210 ca         1 BOD      -0.282000
     19 N3           3.2050     0.2670    -0.1110 nh         1 BOD      -0.624000
     20 C14          1.6310     2.0940     0.2630 c6         1 BOD       0.197800
     21 N2           0.5260     1.1610     0.1780 nh         1 BOD      -0.653000
     22 C7          -2.3340     3.5170    -0.0110 ca         1 BOD      -0.094000
     23 C10         -1.8670     0.8070     0.1550 ca         1 BOD      -0.166000
     24 C5          -3.1740     1.2760     0.1050 cp         1 BOD       0.008000
     25 N           -6.4970    -0.2480     0.8850 nb         1 BOD      -0.747500
     26 C1          -6.3400    -1.3960     0.2360 ca         1 BOD       0.878300
     27 O           -7.3820    -2.2080     0.3180 os         1 BOD      -0.409100
     28 C           -7.3130    -3.4690    -0.3380 c3         1 BOD       0.139700
     29 H1           4.2020    -0.8980     2.1590 h4         1 BOD       0.017100
     30 H2           1.9040    -1.1390     0.8120 h1         1 BOD       0.044700
     31 H3           2.3560    -1.4810    -0.8630 h1         1 BOD       0.044700
     32 H4           0.9910     0.3270    -1.7040 h1         1 BOD       0.043200
     33 H5           0.0350    -0.7080    -0.6480 h1         1 BOD       0.043200
     34 H6           2.7350     1.0820     1.7970 h1         1 BOD       0.044700
     35 H7           3.7130     2.1000     0.7350 h1         1 BOD       0.044700
     36 H8          -0.2230     3.7650    -0.0400 ha         1 BOD       0.132000
     37 H9          -4.4220     3.0340    -0.0370 ha         1 BOD       0.134000
     38 H10          8.2800    -2.5340     1.4150 hn         1 BOD       0.431300
     39 H11          8.6590    -2.1710    -0.2060 hn         1 BOD       0.431300
     40 H13         -5.6030     1.5250     1.3810 h4         1 BOD       0.028600
     41 H14          4.2450     0.6450    -2.2250 hn         1 BOD       0.444300
     42 H15          5.8090     0.2280    -2.8380 hn         1 BOD       0.444300
     43 H16          1.3940     2.8810     0.9790 h1         1 BOD       0.043200
     44 H17          1.8380     2.5730    -0.7060 h1         1 BOD       0.043200
     45 H18         -2.5050     4.5830    -0.0840 ha         1 BOD       0.131000
     46 H19         -1.7040    -0.2560     0.2840 ha         1 BOD       0.134000
     47 H20         -8.2620    -3.9580    -0.1360 h1         1 BOD       0.050033
     48 H21         -7.1860    -3.3570    -1.4150 h1         1 BOD       0.050033
     49 H22         -6.5000    -4.0820     0.0520 h1         1 BOD       0.050033
     50 H12         -3.4020    -1.2080    -1.0710 h4         1 BOD       0.028600
@<TRIPOS>BOND
     1     1     7 ar  
     2     1    17 1   
     3     1    18 ar  
     4     2     7 ar  
     5     2    11 1   
     6     2    16 ar  
     7     3    16 ar  
     8     3    18 ar  
     9     3    29 1   
    10     4     5 1   
    11     4    19 1   
    12     4    30 1   
    13     4    31 1   
    14     5    21 1   
    15     5    32 1   
    16     5    33 1   
    17     6     9 ar  
    18     6    21 1   
    19     6    23 ar  
    20     8    19 1   
    21     8    20 1   
    22     8    34 1   
    23     8    35 1   
    24     9    22 ar  
    25     9    36 1   
    26    10    22 ar  
    27    10    24 ar  
    28    10    37 1   
    29    11    38 1   
    30    11    39 1   
    31    12    13 ar  
    32    12    15 ar  
    33    12    50 1   
    34    13    26 ar  
    35    14    15 ar  
    36    14    25 ar  
    37    14    40 1   
    38    15    24 1   
    39    17    41 1   
    40    17    42 1   
    41    18    19 1   
    42    20    21 1   
    43    20    43 1   
    44    20    44 1   
    45    22    45 1   
    46    23    24 ar  
    47    23    46 1   
    48    25    26 ar  
    49    26    27 1   
    50    27    28 1   
    51    28    47 1   
    52    28    48 1   
    53    28    49 1   
@<TRIPOS>SUBSTRUCTURE
     1 BOD         1 TEMP              0 ****  ****    0 ROOT
