@<TRIPOS>MOLECULE
BOF
   54    58     1     0     0
SMALL
No Charge or Current Charge


@<TRIPOS>ATOM
      1 C11          2.9160     3.2690     1.6610 c3         1 BOF       0.080300
      2 C12          5.3150     0.1930    -1.5670 c3         1 BOF      -0.076100
      3 C14          4.0630    -1.6420     0.4250 cx         1 BOF       0.107500
      4 C15         -1.5110    -1.5950     0.5390 cc         1 BOF       0.456000
      5 C01         -0.5480     0.6450     1.1740 ca         1 BOF      -0.068000
      6 C02         -0.3930    -0.6410     0.6190 ca         1 BOF      -0.151500
      7 C03          0.8900    -1.0350     0.1850 ca         1 BOF      -0.028000
      8 C04          2.0000    -0.1730     0.2840 ca         1 BOF       0.191000
      9 C05          1.8330     1.1220     0.8520 ca         1 BOF      -0.037000
     10 C06          0.5400     1.5290     1.2460 ca         1 BOF      -0.151000
     11 N07          3.2740    -0.5600    -0.2180 nh         1 BOF      -0.722400
     12 C08          3.9320     0.5720    -0.9560 c6         1 BOF       0.122500
     13 C09          4.0140     1.8760    -0.0980 c          1 BOF       0.533000
     14 N10          2.9100     2.0890     0.7640 n          1 BOF      -0.221400
     15 O13          4.9660     2.6510    -0.1550 o          1 BOF      -0.531000
     16 N16         -1.3880    -2.9170     0.5380 nd         1 BOF      -0.356000
     17 N17         -2.6480    -3.4760     0.4350 nd         1 BOF      -0.359000
     18 C18         -3.5310    -2.4910     0.3680 cc         1 BOF       0.399800
     19 N19         -2.8550    -1.3040     0.4710 na         1 BOF      -0.277800
     20 C20         -3.3980    -0.0720     0.1050 ca         1 BOF      -0.018200
     21 C21         -4.3700     0.5380     0.9190 ca         1 BOF      -0.096000
     22 C22         -4.9180     1.7810     0.5560 ca         1 BOF      -0.106000
     23 C23         -4.5010     2.4230    -0.6240 ca         1 BOF      -0.062300
     24 C24         -3.5290     1.8120    -1.4380 ca         1 BOF      -0.106000
     25 C25         -2.9820     0.5690    -1.0770 ca         1 BOF      -0.096000
     26 C26         -5.0900     3.7710    -1.0130 c3         1 BOF      -0.051800
     27 C27         -5.0110    -2.6550     0.1670 c3         1 BOF      -0.123400
     28 C28          3.5430    -3.0370     0.7000 cx         1 BOF      -0.118400
     29 C29          4.5630    -2.8130    -0.3880 cx         1 BOF      -0.118400
     30 H1           2.3940     3.0320     2.5970 h1         1 BOF       0.050367
     31 H2           3.9420     3.5620     1.9150 h1         1 BOF       0.050367
     32 H3           2.4130     4.1090     1.1670 h1         1 BOF       0.050367
     33 H4           5.2330    -0.6810    -2.2230 hc         1 BOF       0.051033
     34 H5           5.7150     1.0120    -2.1750 hc         1 BOF       0.051033
     35 H6           6.0540    -0.0320    -0.7880 hc         1 BOF       0.051033
     36 H7           4.7550    -1.2560     1.1760 h1         1 BOF       0.068700
     37 H8          -1.5140     0.9810     1.5410 ha         1 BOF       0.121000
     38 H9           1.0150    -2.0010    -0.2880 ha         1 BOF       0.147000
     39 H10          0.3620     2.5340     1.6190 ha         1 BOF       0.122000
     40 H11          3.2850     0.8430    -1.8040 h1         1 BOF       0.081700
     41 H12         -4.6970     0.0540     1.8370 ha         1 BOF       0.131000
     42 H13         -5.6650     2.2450     1.1960 ha         1 BOF       0.120500
     43 H14         -3.1970     2.3000    -2.3520 ha         1 BOF       0.120500
     44 H15         -2.2330     0.1080    -1.7180 ha         1 BOF       0.131000
     45 H16         -4.4970     4.5910    -0.5940 hc         1 BOF       0.047700
     46 H17         -5.1140     3.8970    -2.1020 hc         1 BOF       0.047700
     47 H18         -6.1180     3.8790    -0.6480 hc         1 BOF       0.047700
     48 H19         -5.5610    -2.3150     1.0520 hc         1 BOF       0.060033
     49 H20         -5.3540    -2.0720    -0.6950 hc         1 BOF       0.060033
     50 H21         -5.2710    -3.7050    -0.0100 hc         1 BOF       0.060033
     51 H22          3.8790    -3.5210     1.6130 hc         1 BOF       0.078200
     52 H23          2.5510    -3.3290     0.3800 hc         1 BOF       0.078200
     53 H24          4.2260    -2.8970    -1.4180 hc         1 BOF       0.078200
     54 H25          5.5820    -3.1480    -0.2110 hc         1 BOF       0.078200
@<TRIPOS>BOND
     1     1    14 1   
     2     1    30 1   
     3     1    31 1   
     4     1    32 1   
     5     2    12 1   
     6     2    33 1   
     7     2    34 1   
     8     2    35 1   
     9     3    11 1   
    10     3    28 1   
    11     3    29 1   
    12     3    36 1   
    13     4     6 1   
    14     4    16 2   
    15     4    19 1   
    16     5     6 ar  
    17     5    10 ar  
    18     5    37 1   
    19     6     7 ar  
    20     7     8 ar  
    21     7    38 1   
    22     8     9 ar  
    23     8    11 1   
    24     9    10 ar  
    25     9    14 1   
    26    10    39 1   
    27    11    12 1   
    28    12    13 1   
    29    12    40 1   
    30    13    14 1   
    31    13    15 2   
    32    16    17 1   
    33    17    18 2   
    34    18    19 1   
    35    18    27 1   
    36    19    20 1   
    37    20    21 ar  
    38    20    25 ar  
    39    21    22 ar  
    40    21    41 1   
    41    22    23 ar  
    42    22    42 1   
    43    23    24 ar  
    44    23    26 1   
    45    24    25 ar  
    46    24    43 1   
    47    25    44 1   
    48    26    45 1   
    49    26    46 1   
    50    26    47 1   
    51    27    48 1   
    52    27    49 1   
    53    27    50 1   
    54    28    29 1   
    55    28    51 1   
    56    28    52 1   
    57    29    53 1   
    58    29    54 1   
@<TRIPOS>SUBSTRUCTURE
     1 BOF         1 TEMP              0 ****  ****    0 ROOT
