@<TRIPOS>MOLECULE
BOF
   54    58     1     0     0
SMALL
abcg2


@<TRIPOS>ATOM
      1 C11          2.9440     2.9620     1.6240 c3         1 BOF       0.080300
      2 C12          5.2160     0.0740    -1.6990 c3         1 BOF      -0.076100
      3 C14          3.9790    -1.3810     0.5550 cx         1 BOF       0.107500
      4 C15         -1.5180    -1.6090     0.3910 cc         1 BOF       0.456000
      5 C01         -0.5180     0.6060     1.0060 ca         1 BOF      -0.068000
      6 C02         -0.4020    -0.6690     0.4570 ca         1 BOF      -0.151500
      7 C03          0.8410    -1.0780    -0.0280 ca         1 BOF      -0.028000
      8 C04          1.9450    -0.2500     0.0490 ca         1 BOF       0.191000
      9 C05          1.8190     1.0290     0.6040 ca         1 BOF      -0.037000
     10 C06          0.5770     1.4500     1.0700 ca         1 BOF      -0.151000
     11 N07          3.2090    -0.6660    -0.4310 nh         1 BOF      -0.722400
     12 C08          3.8910     0.4560    -1.0670 c6         1 BOF       0.122500
     13 C09          4.0390     1.6280    -0.1030 c          1 BOF       0.533000
     14 N10          2.9570     1.8360     0.7080 n          1 BOF      -0.221400
     15 O13          5.0260     2.3370    -0.0630 o          1 BOF      -0.531000
     16 N16         -1.4010    -2.9050     0.4780 nd         1 BOF      -0.356000
     17 N17         -2.6360    -3.4500     0.3680 nd         1 BOF      -0.359000
     18 C18         -3.4940    -2.4820     0.2190 cc         1 BOF       0.399800
     19 N19         -2.8350    -1.2890     0.2300 na         1 BOF      -0.277800
     20 C20         -3.4150    -0.0160    -0.0110 ca         1 BOF      -0.018200
     21 C21         -4.2440     0.5570     0.9410 ca         1 BOF      -0.096000
     22 C22         -4.8120     1.7980     0.6910 ca         1 BOF      -0.106000
     23 C23         -4.5570     2.4830    -0.4940 ca         1 BOF      -0.062300
     24 C24         -3.7170     1.8850    -1.4350 ca         1 BOF      -0.106000
     25 C25         -3.1510     0.6440    -1.2030 ca         1 BOF      -0.096000
     26 C26         -5.1540     3.8340    -0.7540 c3         1 BOF      -0.051800
     27 C27         -4.9590    -2.6210     0.0460 c3         1 BOF      -0.123400
     28 C28          3.5870    -2.7860     0.8830 cx         1 BOF      -0.118400
     29 C29          4.8440    -2.5190     0.1170 cx         1 BOF      -0.118400
     30 H1           2.5220     2.6550     2.5790 h1         1 BOF       0.050367
     31 H2           3.9590     3.3050     1.7870 h1         1 BOF       0.050367
     32 H3           2.3570     3.7930     1.2300 h1         1 BOF       0.050367
     33 H4           5.0710    -0.7650    -2.3780 hc         1 BOF       0.051033
     34 H5           5.6080     0.9080    -2.2780 hc         1 BOF       0.051033
     35 H6           5.9650    -0.2050    -0.9600 hc         1 BOF       0.051033
     36 H7           4.3530    -0.7950     1.3950 h1         1 BOF       0.068700
     37 H8          -1.4600     0.9560     1.4050 ha         1 BOF       0.121000
     38 H9           0.9500    -2.0540    -0.4810 ha         1 BOF       0.147000
     39 H10          0.4490     2.4350     1.4980 ha         1 BOF       0.122000
     40 H11          3.2280     0.8020    -1.8710 h1         1 BOF       0.081700
     41 H12         -4.4390     0.0460     1.8750 ha         1 BOF       0.131000
     42 H13         -5.4610     2.2410     1.4370 ha         1 BOF       0.120500
     43 H14         -3.5080     2.3940    -2.3680 ha         1 BOF       0.120500
     44 H15         -2.5100     0.1860    -1.9450 ha         1 BOF       0.131000
     45 H16         -4.3940     4.6140    -0.6900 hc         1 BOF       0.047700
     46 H17         -5.5880     3.8900    -1.7530 hc         1 BOF       0.047700
     47 H18         -5.9340     4.0720    -0.0320 hc         1 BOF       0.047700
     48 H19         -5.5040    -2.2550     0.9170 hc         1 BOF       0.060033
     49 H20         -5.3120    -2.0640    -0.8220 hc         1 BOF       0.060033
     50 H21         -5.2070    -3.6710    -0.0910 hc         1 BOF       0.060033
     51 H22          3.6600    -3.0950     1.9170 hc         1 BOF       0.078200
     52 H23          2.7560    -3.2210     0.3450 hc         1 BOF       0.078200
     53 H24          4.8460    -2.7680    -0.9360 hc         1 BOF       0.078200
     54 H25          5.7980    -2.6470     0.6120 hc         1 BOF       0.078200
@<TRIPOS>BOND
     1     1    14 1   
     2     1    30 1   
     3     1    31 1   
     4     1    32 1   
     5     2    12 1   
     6     2    33 1   
     7     2    34 1   
     8     2    35 1   
     9     3    11 1   
    10     3    28 1   
    11     3    29 1   
    12     3    36 1   
    13     4     6 1   
    14     4    16 2   
    15     4    19 1   
    16     5     6 ar  
    17     5    10 ar  
    18     5    37 1   
    19     6     7 ar  
    20     7     8 ar  
    21     7    38 1   
    22     8     9 ar  
    23     8    11 1   
    24     9    10 ar  
    25     9    14 1   
    26    10    39 1   
    27    11    12 1   
    28    12    13 1   
    29    12    40 1   
    30    13    14 1   
    31    13    15 2   
    32    16    17 1   
    33    17    18 2   
    34    18    19 1   
    35    18    27 1   
    36    19    20 1   
    37    20    21 ar  
    38    20    25 ar  
    39    21    22 ar  
    40    21    41 1   
    41    22    23 ar  
    42    22    42 1   
    43    23    24 ar  
    44    23    26 1   
    45    24    25 ar  
    46    24    43 1   
    47    25    44 1   
    48    26    45 1   
    49    26    46 1   
    50    26    47 1   
    51    27    48 1   
    52    27    49 1   
    53    27    50 1   
    54    28    29 1   
    55    28    51 1   
    56    28    52 1   
    57    29    53 1   
    58    29    54 1   
@<TRIPOS>SUBSTRUCTURE
     1 BOF         1 TEMP              0 ****  ****    0 ROOT
