@<TRIPOS>MOLECULE
BOG
   48    48     1     0     0
SMALL
bcc


@<TRIPOS>ATOM
      1 C1         -22.4210   -89.0340    58.9870 c6         1 BOG       0.356900
      2 O1         -23.1660   -88.1690    58.2250 os         1 BOG      -0.380600
      3 C2         -22.3570   -88.5200    60.4200 c6         1 BOG       0.129100
      4 O2         -21.7150   -87.2720    60.4200 oh         1 BOG      -0.584800
      5 C3         -21.6010   -89.5410    61.2610 c6         1 BOG       0.109100
      6 O3         -21.5880   -89.0630    62.5850 oh         1 BOG      -0.601800
      7 C4         -22.2410   -90.9190    61.1470 c6         1 BOG       0.092100
      8 O4         -21.4400   -91.8140    61.8750 oh         1 BOG      -0.606800
      9 C5         -22.3580   -91.2990    59.6640 c6         1 BOG       0.118100
     10 O5         -23.0590   -90.2910    58.9690 os         1 BOG      -0.444600
     11 C6         -23.1500   -92.5790    59.4370 c3         1 BOG       0.135400
     12 O6         -22.4890   -93.6410    60.0980 oh         1 BOG      -0.617800
     13 C9         -22.9600   -88.2210    56.8180 c3         1 BOG       0.143400
     14 C10        -22.1490   -87.0380    56.3200 c3         1 BOG      -0.099400
     15 C11        -20.7000   -87.0220    56.7930 c3         1 BOG      -0.079400
     16 C12        -19.8940   -85.8670    56.2130 c3         1 BOG      -0.072400
     17 C13        -18.4420   -85.8730    56.6710 c3         1 BOG      -0.075400
     18 C14        -17.6200   -84.7220    56.1060 c3         1 BOG      -0.075400
     19 C7         -16.1640   -84.7470    56.5530 c3         1 BOG      -0.075400
     20 C8         -15.3480   -83.5930    55.9870 c3         1 BOG      -0.088100
     21 H1         -21.3940   -89.1460    58.5940 h2         1 BOG       0.032700
     22 H2         -23.3880   -88.4400    60.8010 h1         1 BOG       0.068700
     23 HO2        -21.5180   -87.0400    61.3340 ho         1 BOG       0.424000
     24 H3         -20.5750   -89.6150    60.8660 h1         1 BOG       0.046700
     25 HO3        -20.9470   -89.5730    63.0900 ho         1 BOG       0.427000
     26 H4         -23.2630   -90.8660    61.5610 h1         1 BOG       0.054700
     27 HO4        -21.7240   -92.7090    61.6400 ho         1 BOG       0.436000
     28 H5         -21.3420   -91.4190    59.2510 h1         1 BOG       0.056700
     29 H61        -24.1660   -92.4380    59.8230 h1         1 BOG       0.043200
     30 H62        -23.2270   -92.7690    58.3600 h1         1 BOG       0.043200
     31 HO6        -23.0930   -94.3860    60.1690 ho         1 BOG       0.420000
     32 H1'1       -22.4740   -89.1590    56.5280 h1         1 BOG       0.044700
     33 H1'2       -23.9470   -88.2170    56.3500 h1         1 BOG       0.044700
     34 H2'1       -22.1730   -87.0670    55.2260 hc         1 BOG       0.049200
     35 H2'2       -22.6490   -86.1080    56.6100 hc         1 BOG       0.049200
     36 H3'1       -20.6620   -86.9650    57.8840 hc         1 BOG       0.043200
     37 H3'2       -20.2210   -87.9690    56.5170 hc         1 BOG       0.043200
     38 H4'1       -19.9320   -85.9080    55.1190 hc         1 BOG       0.037200
     39 H4'2       -20.3630   -84.9180    56.4970 hc         1 BOG       0.037200
     40 H5'1       -18.4070   -85.8390    57.7660 hc         1 BOG       0.036700
     41 H5'2       -17.9770   -86.8230    56.3850 hc         1 BOG       0.036700
     42 H6'1       -17.6630   -84.7490    55.0110 hc         1 BOG       0.036700
     43 H6'2       -18.0740   -83.7710    56.4030 hc         1 BOG       0.036700
     44 H7'1       -16.1210   -84.7230    57.6470 hc         1 BOG       0.036200
     45 H7'2       -15.7100   -85.6970    56.2550 hc         1 BOG       0.036200
     46 H8'1       -14.3100   -83.6340    56.3190 hc         1 BOG       0.030700
     47 H8'2       -15.3460   -83.6110    54.8950 hc         1 BOG       0.030700
     48 H8'3       -15.7570   -82.6310    56.2990 hc         1 BOG       0.030700
@<TRIPOS>BOND
     1     1     2 1   
     2     1     3 1   
     3     1    10 1   
     4     1    21 1   
     5     2    13 1   
     6     3     4 1   
     7     3     5 1   
     8     3    22 1   
     9     4    23 1   
    10     5     6 1   
    11     5     7 1   
    12     5    24 1   
    13     6    25 1   
    14     7     8 1   
    15     7     9 1   
    16     7    26 1   
    17     8    27 1   
    18     9    10 1   
    19     9    11 1   
    20     9    28 1   
    21    11    12 1   
    22    11    29 1   
    23    11    30 1   
    24    12    31 1   
    25    13    14 1   
    26    13    32 1   
    27    13    33 1   
    28    14    15 1   
    29    14    34 1   
    30    14    35 1   
    31    15    16 1   
    32    15    36 1   
    33    15    37 1   
    34    16    17 1   
    35    16    38 1   
    36    16    39 1   
    37    17    18 1   
    38    17    40 1   
    39    17    41 1   
    40    18    19 1   
    41    18    42 1   
    42    18    43 1   
    43    19    20 1   
    44    19    44 1   
    45    19    45 1   
    46    20    46 1   
    47    20    47 1   
    48    20    48 1   
@<TRIPOS>SUBSTRUCTURE
     1 BOG         1 TEMP              0 ****  ****    0 ROOT
