@<TRIPOS>MOLECULE
BOG
   48    48     1     0     0
SMALL
No Charge or Current Charge


@<TRIPOS>ATOM
      1 C1         -22.5470   -88.7810    59.1260 c6         1 BOG       0.403300
      2 O1         -23.3980   -87.9400    58.3210 os         1 BOG      -0.427000
      3 C2         -22.6700   -88.4190    60.6490 c6         1 BOG       0.152300
      4 O2         -22.2890   -87.0560    60.9540 oh         1 BOG      -0.707000
      5 C3         -21.7900   -89.4050    61.4720 c6         1 BOG       0.132300
      6 O3         -21.9120   -89.1520    62.8820 oh         1 BOG      -0.664000
      7 C4         -22.1950   -90.8730    61.1520 c6         1 BOG       0.115300
      8 O4         -21.3580   -91.8040    61.8620 oh         1 BOG      -0.729000
      9 C5         -22.1020   -91.1120    59.6130 c6         1 BOG       0.141300
     10 O5         -22.9400   -90.1570    58.9190 os         1 BOG      -0.491000
     11 C6         -22.5630   -92.5470    59.2050 c3         1 BOG       0.158600
     12 O6         -21.8080   -93.5760    59.8820 oh         1 BOG      -0.740000
     13 C9         -23.2450   -88.0250    56.8910 c3         1 BOG       0.166600
     14 C10        -22.3170   -86.8900    56.3900 c3         1 BOG      -0.099400
     15 C11        -20.8470   -86.9610    56.8690 c3         1 BOG      -0.079400
     16 C12        -19.9420   -85.9100    56.1900 c3         1 BOG      -0.072400
     17 C13        -18.4770   -85.9720    56.6770 c3         1 BOG      -0.075400
     18 C14        -17.5700   -84.9210    55.9990 c3         1 BOG      -0.075400
     19 C7         -16.1060   -84.9830    56.4850 c3         1 BOG      -0.075400
     20 C8         -15.2000   -83.9360    55.8090 c3         1 BOG      -0.088100
     21 H1         -21.5010   -88.6560    58.8150 h2         1 BOG       0.032700
     22 H2         -23.7200   -88.5810    60.9380 h1         1 BOG       0.068700
     23 HO2        -22.1130   -87.0590    61.9260 ho         1 BOG       0.523000
     24 H3         -20.7420   -89.2690    61.1630 h1         1 BOG       0.046700
     25 HO3        -21.6050   -89.9840    63.3130 ho         1 BOG       0.466000
     26 H4         -23.2440   -91.0180    61.4510 h1         1 BOG       0.054700
     27 HO4        -21.3880   -92.6300    61.2940 ho         1 BOG       0.535000
     28 H5         -21.0630   -90.9770    59.2780 h1         1 BOG       0.056700
     29 H61        -23.6320   -92.6470    59.4350 h1         1 BOG       0.043200
     30 H62        -22.4480   -92.6440    58.1160 h1         1 BOG       0.043200
     31 HO6        -22.0500   -94.4360    59.4570 ho         1 BOG       0.519000
     32 H1'1       -22.8490   -89.0020    56.5810 h1         1 BOG       0.044700
     33 H1'2       -24.2240   -87.9020    56.4100 h1         1 BOG       0.044700
     34 H2'1       -22.3280   -86.9130    55.2930 hc         1 BOG       0.049200
     35 H2'2       -22.7470   -85.9250    56.6820 hc         1 BOG       0.049200
     36 H3'1       -20.8110   -86.7990    57.9530 hc         1 BOG       0.043200
     37 H3'2       -20.4480   -87.9630    56.6720 hc         1 BOG       0.043200
     38 H4'1       -19.9660   -86.0600    55.1040 hc         1 BOG       0.037200
     39 H4'2       -20.3440   -84.9080    56.3850 hc         1 BOG       0.037200
     40 H5'1       -18.4520   -85.8210    57.7640 hc         1 BOG       0.036700
     41 H5'2       -18.0750   -86.9740    56.4830 hc         1 BOG       0.036700
     42 H6'1       -17.5950   -85.0720    54.9120 hc         1 BOG       0.036700
     43 H6'2       -17.9720   -83.9190    56.1930 hc         1 BOG       0.036700
     44 H7'1       -16.0760   -84.8310    57.5720 hc         1 BOG       0.036200
     45 H7'2       -15.7000   -85.9840    56.2910 hc         1 BOG       0.036200
     46 H8'1       -14.1740   -84.0180    56.1860 hc         1 BOG       0.030700
     47 H8'2       -15.1800   -84.0830    54.7230 hc         1 BOG       0.030700
     48 H8'3       -15.5610   -82.9200    56.0150 hc         1 BOG       0.030700
@<TRIPOS>BOND
     1     1     2 1   
     2     1     3 1   
     3     1    10 1   
     4     1    21 1   
     5     2    13 1   
     6     3     4 1   
     7     3     5 1   
     8     3    22 1   
     9     4    23 1   
    10     5     6 1   
    11     5     7 1   
    12     5    24 1   
    13     6    25 1   
    14     7     8 1   
    15     7     9 1   
    16     7    26 1   
    17     8    27 1   
    18     9    10 1   
    19     9    11 1   
    20     9    28 1   
    21    11    12 1   
    22    11    29 1   
    23    11    30 1   
    24    12    31 1   
    25    13    14 1   
    26    13    32 1   
    27    13    33 1   
    28    14    15 1   
    29    14    34 1   
    30    14    35 1   
    31    15    16 1   
    32    15    36 1   
    33    15    37 1   
    34    16    17 1   
    35    16    38 1   
    36    16    39 1   
    37    17    18 1   
    38    17    40 1   
    39    17    41 1   
    40    18    19 1   
    41    18    42 1   
    42    18    43 1   
    43    19    20 1   
    44    19    44 1   
    45    19    45 1   
    46    20    46 1   
    47    20    47 1   
    48    20    48 1   
@<TRIPOS>SUBSTRUCTURE
     1 BOG         1 TEMP              0 ****  ****    0 ROOT
