@<TRIPOS>MOLECULE
BOH
   36    37     1     0     0
SMALL
No Charge or Current Charge


@<TRIPOS>ATOM
      1 N            6.1450     0.8660    -1.1110 n8         1 BOH      -0.987200
      2 CA           5.2300     0.9770     0.0740 c3         1 BOH       0.095500
      3 C            3.9210     0.1070    -0.0020 c          1 BOH       0.562100
      4 O            3.9640    -1.0980    -0.2130 o          1 BOH      -0.527100
      5 CB           6.0230     0.6660     1.3620 c3         1 BOH      -0.091100
      6 CAG         -4.4560     0.0690     1.5700 ca         1 BOH      -0.070000
      7 CAH         -5.1910     0.5290     0.4630 ca         1 BOH      -0.194000
      8 CAI         -3.0590    -0.0640     1.4780 ca         1 BOH      -0.101000
      9 CAJ         -3.1340     0.7270    -0.8200 ca         1 BOH      -0.131000
     10 CAN         -0.9770    -2.3920    -0.2210 c          1 BOH       0.503600
     11 CAP         -4.5280     0.8590    -0.7300 ca         1 BOH       0.137100
     12 CAQ         -2.3940     0.2570     0.2800 ca         1 BOH       0.018000
     13 CAR          1.4460     0.3810     0.1250 cc         1 BOH       0.574300
     14 CAS         -0.2780    -1.0600    -0.0290 cd         1 BOH       0.230500
     15 CAT         -0.9440     0.1400     0.1880 cc         1 BOH      -0.113000
     16 NAK          1.1130    -0.8870    -0.0530 nd         1 BOH      -0.646000
     17 NAL          2.7490     0.8220     0.1490 ns         1 BOH      -0.486400
     18 OAD         -2.1950    -2.5460    -0.2210 o          1 BOH      -0.514100
     19 SAM          0.1250     1.4970     0.3340 ss         1 BOH      -0.077400
     20 H1           6.3750    -0.1260    -1.2610 hn         1 BOH       0.414000
     21 H2           5.6330     1.1160    -1.9670 hn         1 BOH       0.414000
     22 H4           4.9140     2.0280     0.1360 h1         1 BOH       0.066700
     23 H5           6.9000     1.3190     1.4470 hc         1 BOH       0.049700
     24 H6           5.3950     0.8270     2.2470 hc         1 BOH       0.049700
     25 H7           6.3650    -0.3760     1.3720 hc         1 BOH       0.049700
     26 H8           0.6220    -3.6950     0.3970 hc         1 BOH       0.068367
     27 H9          -0.6580    -4.5450    -0.5660 hc         1 BOH       0.068367
     28 H10          0.5790    -3.4320    -1.2870 hc         1 BOH       0.068367
     29 H11         -4.9660    -0.1840     2.4970 ha         1 BOH       0.116000
     30 H12         -6.2710     0.6290     0.5420 ha         1 BOH       0.114000
     31 H13         -2.4930    -0.4160     2.3370 ha         1 BOH       0.124000
     32 H14         -2.6260     0.9870    -1.7450 ha         1 BOH       0.132000
     33 H15          2.8750     1.8120     0.2990 hn         1 BOH       0.331500
     34 H16         -6.1860     1.3380    -1.5580 ho         1 BOH       0.466000
     35 OAF         -5.2360     1.3110    -1.8030 oh         1 BOH      -0.534100
     36 CAA         -0.0860    -3.6200    -0.4360 c3         1 BOH      -0.182100
@<TRIPOS>BOND
     1     1     2 1   
     2     1    20 1   
     3     1    21 1   
     4     2     3 1   
     5     2     5 1   
     6     2    22 1   
     7     3     4 2   
     8     3    17 1   
     9     5    23 1   
    10     5    24 1   
    11     5    25 1   
    12     6     7 ar  
    13     6     8 ar  
    14     6    29 1   
    15     7    11 ar  
    16     7    30 1   
    17     8    12 ar  
    18     8    31 1   
    19     9    11 ar  
    20     9    12 ar  
    21     9    32 1   
    22    10    14 1   
    23    10    18 2   
    24    10    36 1   
    25    11    35 1   
    26    12    15 1   
    27    13    16 2   
    28    13    17 1   
    29    13    19 1   
    30    14    15 2   
    31    14    16 1   
    32    15    19 1   
    33    17    33 1   
    34    26    36 1   
    35    27    36 1   
    36    28    36 1   
    37    34    35 1   
@<TRIPOS>SUBSTRUCTURE
     1 BOH         1 TEMP              0 ****  ****    0 ROOT
