@<TRIPOS>MOLECULE
BOH
   36    37     1     0     0
SMALL
abcg2


@<TRIPOS>ATOM
      1 N            6.3050     0.3010    -0.7190 n8         1 BOH      -0.987200
      2 CA           5.1250     0.9120    -0.1590 c3         1 BOH       0.095500
      3 C            3.8920     0.0040    -0.1930 c          1 BOH       0.562100
      4 O            3.9550    -1.2020    -0.1720 o          1 BOH      -0.527100
      5 CB           5.3840     1.3250     1.2900 c3         1 BOH      -0.091100
      6 CAG         -4.4380    -0.2380     1.4700 ca         1 BOH      -0.070000
      7 CAH         -5.1060     0.6830     0.6740 ca         1 BOH      -0.194000
      8 CAI         -3.0980    -0.5200     1.2660 ca         1 BOH      -0.101000
      9 CAJ         -3.0700     1.0620    -0.5560 ca         1 BOH      -0.131000
     10 CAN         -0.7850    -2.6030    -0.3500 c          1 BOH       0.503600
     11 CAP         -4.4190     1.3390    -0.3430 ca         1 BOH       0.137100
     12 CAQ         -2.4120     0.1310     0.2420 ca         1 BOH       0.018000
     13 CAR          1.4390     0.1770    -0.1510 cc         1 BOH       0.574300
     14 CAS         -0.2400    -1.2360    -0.1620 cd         1 BOH       0.230500
     15 CAT         -0.9770    -0.1010     0.0420 cc         1 BOH      -0.113000
     16 NAK          1.1150    -1.0610    -0.2640 nd         1 BOH      -0.646000
     17 NAL          2.7060     0.7040    -0.2130 ns         1 BOH      -0.486400
     18 OAD         -1.9770    -2.7940    -0.4530 o          1 BOH      -0.514100
     19 SAM          0.0950     1.2510     0.1120 ss         1 BOH      -0.077400
     20 H1           6.5270    -0.5500    -0.2170 hn         1 BOH       0.414000
     21 H2           6.1430     0.0300    -1.6800 hn         1 BOH       0.414000
     22 H4           4.9030     1.8130    -0.7390 h1         1 BOH       0.066700
     23 H5           6.2280     2.0110     1.3300 hc         1 BOH       0.049700
     24 H6           4.5220     1.8220     1.7340 hc         1 BOH       0.049700
     25 H7           5.6240     0.4540     1.9030 hc         1 BOH       0.049700
     26 H8           0.8480    -3.7250     0.4710 hc         1 BOH       0.068367
     27 H9          -0.2840    -4.6750    -0.5190 hc         1 BOH       0.068367
     28 H10          0.8910    -3.5720    -1.2690 hc         1 BOH       0.068367
     29 H11         -4.9770    -0.7380     2.2640 ha         1 BOH       0.116000
     30 H12         -6.1540     0.8930     0.8500 ha         1 BOH       0.114000
     31 H13         -2.5850    -1.2250     1.9050 ha         1 BOH       0.124000
     32 H14         -2.5440     1.5690    -1.3570 ha         1 BOH       0.132000
     33 H15          2.7750     1.7100    -0.2580 hn         1 BOH       0.331500
     34 H16         -5.9350     2.3410    -0.9320 ho         1 BOH       0.466000
     35 OAF         -5.0010     2.2480    -1.1480 oh         1 BOH      -0.534100
     36 CAA          0.2200    -3.7170    -0.4210 c3         1 BOH      -0.182100
@<TRIPOS>BOND
     1     1     2 1   
     2     1    20 1   
     3     1    21 1   
     4     2     3 1   
     5     2     5 1   
     6     2    22 1   
     7     3     4 2   
     8     3    17 1   
     9     5    23 1   
    10     5    24 1   
    11     5    25 1   
    12     6     7 ar  
    13     6     8 ar  
    14     6    29 1   
    15     7    11 ar  
    16     7    30 1   
    17     8    12 ar  
    18     8    31 1   
    19     9    11 ar  
    20     9    12 ar  
    21     9    32 1   
    22    10    14 1   
    23    10    18 2   
    24    10    36 1   
    25    11    35 1   
    26    12    15 1   
    27    13    16 2   
    28    13    17 1   
    29    13    19 1   
    30    14    15 2   
    31    14    16 1   
    32    15    19 1   
    33    17    33 1   
    34    26    36 1   
    35    27    36 1   
    36    28    36 1   
    37    34    35 1   
@<TRIPOS>SUBSTRUCTURE
     1 BOH         1 TEMP              0 ****  ****    0 ROOT
