@<TRIPOS>MOLECULE
BOI
   56    58     1     0     0
SMALL
No Charge or Current Charge


@<TRIPOS>ATOM
      1 O8          13.5210    15.1910    33.8170 o          1 BOI      -0.628000
      2 C15         12.4280    15.7440    33.7910 c          1 BOI       0.602000
      3 N2          12.1490    16.7620    32.8570 n          1 BOI      -0.326300
      4 C14         13.2320    17.1610    31.9120 c3         1 BOI       0.098300
      5 C6          10.8920    17.3650    32.7810 cc         1 BOI       0.542200
      6 N1          10.6740    18.2790    31.8720 n2         1 BOI      -0.525700
      7 O7           9.3760    18.8550    31.8140 os         1 BOI      -0.271000
      8 C7           9.2740    19.8210    30.7440 c3         1 BOI       0.219900
      9 C8           9.3160    19.1130    29.3890 ca         1 BOI      -0.087300
     10 C13          8.1910    18.3990    28.9280 ca         1 BOI      -0.086500
     11 C12          8.2260    17.7500    27.6810 ca         1 BOI      -0.113500
     12 C11          9.3850    17.8110    26.8900 ca         1 BOI       0.108000
     13 Cl           9.4280    16.9980    25.3310 cl         1 BOI      -0.252000
     14 C10         10.5090    18.5200    27.3420 ca         1 BOI      -0.113500
     15 C9          10.4760    19.1700    28.5890 ca         1 BOI      -0.086500
     16 C5           9.9010    16.9200    33.7130 cc         1 BOI      -0.442600
     17 C4          10.1590    15.9490    34.6500 cd         1 BOI       0.033600
     18 N           11.4250    15.3780    34.7070 n          1 BOI      -0.325000
     19 C3          11.7510    14.3210    35.7110 c5         1 BOI       0.343700
     20 O6          10.5570    13.6190    36.1290 os         1 BOI      -0.377000
     21 C16         12.3280    15.0520    36.9890 c5         1 BOI       0.125300
     22 O9          13.4190    14.3610    37.6110 oh         1 BOI      -0.719000
     23 C17         11.1200    14.9800    37.9670 c5         1 BOI       0.083300
     24 O10         11.5670    15.0560    39.3380 oh         1 BOI      -0.754000
     25 C2          10.5350    13.5900    37.5740 c5         1 BOI       0.135300
     26 C1           9.1130    13.3000    38.1410 c3         1 BOI       0.220600
     27 O5           8.3930    12.4230    37.2610 os         1 BOI      -0.560400
     28 P1           6.9530    11.8630    37.7200 p5         1 BOI       1.437400
     29 O3           7.0160    11.3390    39.1190 o          1 BOI      -0.878500
     30 O4           6.4160    10.7980    36.8190 o          1 BOI      -0.878500
     31 C            5.8960    13.3020    37.7740 c3         1 BOI      -0.767400
     32 P            5.9630    14.0940    36.1860 p5         1 BOI       1.369500
     33 O            7.1120    15.0380    36.1780 o          1 BOI      -0.957833
     34 O2           6.0110    13.1520    35.0390 o          1 BOI      -0.957833
     35 O1           4.7100    14.8980    36.1240 o          1 BOI      -0.957833
     36 H19         14.2240    16.8910    32.2920 h1         1 BOI       0.037700
     37 H17         13.0730    16.6660    30.9460 h1         1 BOI       0.037700
     38 H18         13.2280    18.2480    31.7630 h1         1 BOI       0.037700
     39 H12         10.0800    20.5640    30.8100 h1         1 BOI       0.040700
     40 H11          8.3240    20.3650    30.8250 h1         1 BOI       0.040700
     41 H16          7.2920    18.3470    29.5380 ha         1 BOI       0.135000
     42 H15          7.3570    17.2000    27.3290 ha         1 BOI       0.121000
     43 H14         11.4050    18.5640    26.7280 ha         1 BOI       0.121000
     44 H13         11.3520    19.7140    28.9350 ha         1 BOI       0.135000
     45 H10          8.9140    17.3660    33.6630 ha         1 BOI       0.274000
     46 H9           9.4220    15.5680    35.3660 h4         1 BOI       0.359000
     47 H1          12.4770    13.6260    35.2720 h2         1 BOI       0.091700
     48 H20         12.6100    16.0930    36.7780 h1         1 BOI       0.044700
     49 H21         13.1580    14.4150    38.5690 ho         1 BOI       0.507000
     50 H22         10.4010    15.7820    37.7420 h1         1 BOI       0.065700
     51 H23         10.8450    15.4730    39.8700 ho         1 BOI       0.524000
     52 H           11.2000    12.7790    37.9020 h1         1 BOI       0.053700
     53 H7           8.5790    14.2510    38.2580 h1         1 BOI       0.035200
     54 H8           9.2220    12.8580    39.1400 h1         1 BOI       0.035200
     55 H4           6.2210    13.9880    38.5600 hc         1 BOI       0.023700
     56 H5           4.8750    12.9780    37.9900 hc         1 BOI       0.023700
@<TRIPOS>BOND
     1     1     2 2   
     2     2     3 1   
     3     2    18 1   
     4     3     4 1   
     5     3     5 1   
     6     4    36 1   
     7     4    37 1   
     8     4    38 1   
     9     5     6 2   
    10     5    16 1   
    11     6     7 1   
    12     7     8 1   
    13     8     9 1   
    14     8    39 1   
    15     8    40 1   
    16     9    10 ar  
    17     9    15 ar  
    18    10    11 ar  
    19    10    41 1   
    20    11    12 ar  
    21    11    42 1   
    22    12    13 1   
    23    12    14 ar  
    24    14    15 ar  
    25    14    43 1   
    26    15    44 1   
    27    16    17 2   
    28    16    45 1   
    29    17    18 1   
    30    17    46 1   
    31    18    19 1   
    32    19    20 1   
    33    19    21 1   
    34    19    47 1   
    35    20    25 1   
    36    21    22 1   
    37    21    23 1   
    38    21    48 1   
    39    22    49 1   
    40    23    24 1   
    41    23    25 1   
    42    23    50 1   
    43    24    51 1   
    44    25    26 1   
    45    25    52 1   
    46    26    27 1   
    47    26    53 1   
    48    26    54 1   
    49    27    28 1   
    50    28    29 1   
    51    28    30 1   
    52    28    31 1   
    53    31    32 1   
    54    31    55 1   
    55    31    56 1   
    56    32    33 1   
    57    32    34 1   
    58    32    35 1   
@<TRIPOS>SUBSTRUCTURE
     1 BOI         1 TEMP              0 ****  ****    0 ROOT
