@<TRIPOS>MOLECULE
BOI
   56    58     1     0     0
SMALL
abcg2


@<TRIPOS>ATOM
      1 O8          13.6940    15.3420    34.0910 o          1 BOI      -0.628000
      2 C15         12.5560    15.7610    33.9670 c          1 BOI       0.602000
      3 N2          12.2360    16.7870    33.1110 n          1 BOI      -0.326300
      4 C14         13.2980    17.3990    32.3300 c3         1 BOI       0.098300
      5 C6          10.9540    17.3210    32.9830 cc         1 BOI       0.542200
      6 N1          10.8430    18.3500    32.2210 n2         1 BOI      -0.525700
      7 O7           9.5410    18.8260    32.2220 os         1 BOI      -0.271000
      8 C7           9.3360    19.6340    31.0930 c3         1 BOI       0.219900
      9 C8           9.2610    18.8610    29.8020 ca         1 BOI      -0.087300
     10 C13          8.7260    17.5760    29.7570 ca         1 BOI      -0.086500
     11 C12          8.6070    16.8960    28.5550 ca         1 BOI      -0.113500
     12 C11          9.0220    17.5110    27.3830 ca         1 BOI       0.108000
     13 CL           8.8600    16.6710    25.8740 cl         1 BOI      -0.252000
     14 C10          9.5630    18.7860    27.4010 ca         1 BOI      -0.113500
     15 C9           9.6820    19.4480    28.6140 ca         1 BOI      -0.086500
     16 C5           9.9160    16.6460    33.7080 cc         1 BOI      -0.442600
     17 C4          10.2290    15.6290    34.5220 cd         1 BOI       0.033600
     18 N           11.5200    15.2140    34.6940 n          1 BOI      -0.325000
     19 C3          11.8870    14.1420    35.6430 c5         1 BOI       0.343700
     20 O6          10.7400    13.4680    36.0540 os         1 BOI      -0.377000
     21 C16         12.5490    14.7060    36.9040 c5         1 BOI       0.125300
     22 O9          13.4340    13.7270    37.3810 oh         1 BOI      -0.719000
     23 C17         11.3410    14.8730    37.8220 c5         1 BOI       0.083300
     24 O10         11.7570    14.9270    39.1560 oh         1 BOI      -0.754000
     25 C2          10.4960    13.6540    37.4520 c5         1 BOI       0.135300
     26 C1           9.0250    13.8450    37.7330 c3         1 BOI       0.220600
     27 O5           8.3120    12.6970    37.3550 os         1 BOI      -0.560400
     28 P1           6.7310    12.5020    37.8520 p5         1 BOI       1.437400
     29 O3           6.6910    12.7540    39.3440 o          1 BOI      -0.878500
     30 O4           6.3570    11.1370    37.3350 o          1 BOI      -0.878500
     31 C            5.7890    13.8100    36.9990 c3         1 BOI      -0.767400
     32 P            6.0930    14.3000    35.2050 p5         1 BOI       1.369500
     33 O            7.3800    15.1550    35.2330 o          1 BOI      -0.957833
     34 O2           6.2290    13.0050    34.3990 o          1 BOI      -0.957833
     35 O1           4.8490    15.1270    34.8550 o          1 BOI      -0.957833
     36 H19         14.2220    16.8560    32.4840 h1         1 BOI       0.037700
     37 H17         13.0400    17.3770    31.2730 h1         1 BOI       0.037700
     38 H18         13.4370    18.4380    32.6280 h1         1 BOI       0.037700
     39 H12         10.1070    20.4100    31.0200 h1         1 BOI       0.040700
     40 H11          8.3830    20.1380    31.2750 h1         1 BOI       0.040700
     41 H16          8.3930    17.0900    30.6650 ha         1 BOI       0.135000
     42 H15          8.1900    15.8970    28.5330 ha         1 BOI       0.121000
     43 H14          9.8930    19.2580    26.4860 ha         1 BOI       0.121000
     44 H13         10.1130    20.4430    28.6280 ha         1 BOI       0.135000
     45 H10          8.8840    16.9330    33.6040 ha         1 BOI       0.274000
     46 H9           9.4280    15.1080    35.0370 h4         1 BOI       0.359000
     47 H1          12.5570    13.4580    35.1190 h2         1 BOI       0.091700
     48 H20         13.0580    15.6580    36.7200 h1         1 BOI       0.044700
     49 H21         13.6250    13.9150    38.3060 ho         1 BOI       0.507000
     50 H22         10.8060    15.7890    37.5310 h1         1 BOI       0.065700
     51 H23         10.9990    15.1120    39.7200 ho         1 BOI       0.524000
     52 H           10.8610    12.7740    37.9960 h1         1 BOI       0.053700
     53 H7           8.6540    14.7250    37.1980 h1         1 BOI       0.035200
     54 H8           8.9310    14.0410    38.8100 h1         1 BOI       0.035200
     55 H4           5.8480    14.7210    37.6030 hc         1 BOI       0.023700
     56 H5           4.7450    13.4840    37.0780 hc         1 BOI       0.023700
@<TRIPOS>BOND
     1     1     2 2   
     2     2     3 1   
     3     2    18 1   
     4     3     4 1   
     5     3     5 1   
     6     4    36 1   
     7     4    37 1   
     8     4    38 1   
     9     5     6 2   
    10     5    16 1   
    11     6     7 1   
    12     7     8 1   
    13     8     9 1   
    14     8    39 1   
    15     8    40 1   
    16     9    10 ar  
    17     9    15 ar  
    18    10    11 ar  
    19    10    41 1   
    20    11    12 ar  
    21    11    42 1   
    22    12    13 1   
    23    12    14 ar  
    24    14    15 ar  
    25    14    43 1   
    26    15    44 1   
    27    16    17 2   
    28    16    45 1   
    29    17    18 1   
    30    17    46 1   
    31    18    19 1   
    32    19    20 1   
    33    19    21 1   
    34    19    47 1   
    35    20    25 1   
    36    21    22 1   
    37    21    23 1   
    38    21    48 1   
    39    22    49 1   
    40    23    24 1   
    41    23    25 1   
    42    23    50 1   
    43    24    51 1   
    44    25    26 1   
    45    25    52 1   
    46    26    27 1   
    47    26    53 1   
    48    26    54 1   
    49    27    28 1   
    50    28    29 1   
    51    28    30 1   
    52    28    31 1   
    53    31    32 1   
    54    31    55 1   
    55    31    56 1   
    56    32    33 1   
    57    32    34 1   
    58    32    35 1   
@<TRIPOS>SUBSTRUCTURE
     1 BOI         1 TEMP              0 ****  ****    0 ROOT
