@<TRIPOS>MOLECULE
BOJ
   47    49     1     0     0
SMALL
No Charge or Current Charge


@<TRIPOS>ATOM
      1 C15         -5.9000     0.2690     1.1020 ca         1 BOJ      -0.083500
      2 C1           2.0950    -2.7740     0.5630 c3         1 BOJ      -0.068400
      3 C3           2.8910    -0.5340    -0.3790 ca         1 BOJ       0.207300
      4 C8          -1.5090    -0.3380     1.0740 c6         1 BOJ       0.192800
      5 C4           2.0470     0.5740    -0.0940 ca         1 BOJ       0.027000
      6 C5           2.7230     1.8010     0.1800 ca         1 BOJ       0.396900
      7 C6           4.7300     0.7940    -0.0950 ca         1 BOJ       0.405900
      8 C7          -0.1320     0.3960     1.2120 c6         1 BOJ       0.203300
      9 C9          -1.5860     0.2670    -1.3440 c6         1 BOJ       0.192800
     10 N3           2.0650     2.9630     0.4680 nv         1 BOJ      -1.073900
     11 N            4.0560     1.9120     0.1860 nb         1 BOJ      -0.329000
     12 N2           6.0770     0.9030    -0.0900 nv         1 BOJ      -1.049900
     13 N1           4.2370    -0.4160    -0.3760 nb         1 BOJ      -0.283000
     14 C            1.5160    -4.1670     0.2500 c3         1 BOJ      -0.089100
     15 N4           0.6190     0.4490    -0.0800 nh         1 BOJ      -0.803400
     16 C10         -0.2030     0.9920    -1.2050 c6         1 BOJ       0.203300
     17 N5          -2.3480     0.1890    -0.0530 nh         1 BOJ      -0.793400
     18 C11         -3.7520     0.0020    -0.0400 ca         1 BOJ       0.291000
     19 C16         -4.5050     0.4420     1.0660 ca         1 BOJ      -0.159500
     20 C14         -6.5560    -0.3500     0.0260 ca         1 BOJ      -0.142000
     21 C13         -5.8180    -0.7930    -1.0830 ca         1 BOJ      -0.083500
     22 C12         -4.4240    -0.6160    -1.1160 ca         1 BOJ      -0.159500
     23 H1          -6.4700     0.6160     1.9610 ha         1 BOJ       0.109000
     24 H2           3.0370    -2.8930     1.1130 hc         1 BOJ       0.041200
     25 H3           1.4030    -2.2440     1.2270 hc         1 BOJ       0.041200
     26 H4           3.0430    -2.4590    -1.3590 hc         1 BOJ       0.062200
     27 H5           1.4110    -1.8380    -1.2690 hc         1 BOJ       0.062200
     28 H6          -1.3160    -1.4090     0.9130 h1         1 BOJ       0.044200
     29 H7          -2.0410    -0.2520     2.0330 h1         1 BOJ       0.044200
     30 H8          -0.3150     1.4170     1.5780 h1         1 BOJ       0.036200
     31 H9           0.4650    -0.1210     1.9770 h1         1 BOJ       0.036200
     32 H10         -2.1760     0.8020    -2.1030 h1         1 BOJ       0.044200
     33 H11         -1.4080    -0.7490    -1.7260 h1         1 BOJ       0.044200
     34 H12          1.0700     2.8800     0.6550 hn         1 BOJ       0.489500
     35 H13          2.5700     3.7060     0.9420 hn         1 BOJ       0.489500
     36 H14          6.4920     1.7330     0.3250 hn         1 BOJ       0.484500
     37 H15          6.6340     0.0520    -0.0780 hn         1 BOJ       0.484500
     38 H16          0.5520    -4.0790    -0.2670 hc         1 BOJ       0.031367
     39 H17          2.2010    -4.7390    -0.3870 hc         1 BOJ       0.031367
     40 H18          1.3570    -4.7320     1.1770 hc         1 BOJ       0.031367
     41 H19          0.3420     0.8890    -2.1550 h1         1 BOJ       0.036200
     42 H20         -0.3840     2.0650    -1.0480 h1         1 BOJ       0.036200
     43 H21         -4.0090     0.9340     1.8980 ha         1 BOJ       0.111500
     44 H22         -7.6350    -0.4860     0.0520 ha         1 BOJ       0.113000
     45 H23         -6.3260    -1.2750    -1.9160 ha         1 BOJ       0.109000
     46 H24         -3.8700    -0.9750    -1.9780 ha         1 BOJ       0.111500
     47 C2           2.3460    -1.9250    -0.7030 c3         1 BOJ      -0.129700
@<TRIPOS>BOND
     1     1    19 ar  
     2     1    20 ar  
     3     1    23 1   
     4     2    14 1   
     5     2    24 1   
     6     2    25 1   
     7     2    47 1   
     8     3     5 ar  
     9     3    13 ar  
    10     3    47 1   
    11     4     8 1   
    12     4    17 1   
    13     4    28 1   
    14     4    29 1   
    15     5     6 ar  
    16     5    15 1   
    17     6    10 1   
    18     6    11 ar  
    19     7    11 ar  
    20     7    12 1   
    21     7    13 ar  
    22     8    15 1   
    23     8    30 1   
    24     8    31 1   
    25     9    16 1   
    26     9    17 1   
    27     9    32 1   
    28     9    33 1   
    29    10    34 1   
    30    10    35 1   
    31    12    36 1   
    32    12    37 1   
    33    14    38 1   
    34    14    39 1   
    35    14    40 1   
    36    15    16 1   
    37    16    41 1   
    38    16    42 1   
    39    17    18 1   
    40    18    19 ar  
    41    18    22 ar  
    42    19    43 1   
    43    20    21 ar  
    44    20    44 1   
    45    21    22 ar  
    46    21    45 1   
    47    22    46 1   
    48    26    47 1   
    49    27    47 1   
@<TRIPOS>SUBSTRUCTURE
     1 BOJ         1 TEMP              0 ****  ****    0 ROOT
