@<TRIPOS>MOLECULE
BOJ
   47    49     1     0     0
SMALL
bcc


@<TRIPOS>ATOM
      1 C15         -5.7590     0.1020     1.1350 ca         1 BOJ      -0.101500
      2 C1           2.1290    -2.7580     0.6150 c3         1 BOJ      -0.068400
      3 C3           2.7910    -0.5530    -0.3800 ca         1 BOJ       0.535600
      4 C8          -1.4840    -0.2890     1.0390 c6         1 BOJ       0.192800
      5 C4           1.9540     0.5180    -0.1060 ca         1 BOJ      -0.242000
      6 C5           2.6010     1.7490     0.1650 ca         1 BOJ       0.725200
      7 C6           4.6230     0.7530    -0.0980 ca         1 BOJ       0.931900
      8 C7          -0.1400     0.4020     1.1660 c6         1 BOJ       0.203300
      9 C9          -1.5580     0.2550    -1.3030 c6         1 BOJ       0.192800
     10 N3           1.9050     2.8800     0.3990 nv         1 BOJ      -0.963500
     11 N            3.9270     1.8540     0.1720 nb         1 BOJ      -0.855000
     12 N2           5.9740     0.8790    -0.1300 nv         1 BOJ      -0.939500
     13 N1           4.1220    -0.4480    -0.3780 nb         1 BOJ      -0.809000
     14 C            1.5790    -4.1490     0.3390 c3         1 BOJ      -0.089100
     15 N4           0.5540     0.3510    -0.1020 nh         1 BOJ      -0.665000
     16 C10         -0.2080     0.9410    -1.1810 c6         1 BOJ       0.203300
     17 N5          -2.2630     0.3050    -0.0390 nh         1 BOJ      -0.655000
     18 C11         -3.6380     0.0610    -0.0420 ca         1 BOJ       0.152600
     19 C16         -4.3910     0.3030     1.1170 ca         1 BOJ      -0.177500
     20 C14         -6.4300    -0.3360    -0.0020 ca         1 BOJ      -0.160000
     21 C13         -5.6980    -0.5740    -1.1540 ca         1 BOJ      -0.101500
     22 C12         -4.3210    -0.3890    -1.1770 ca         1 BOJ      -0.177500
     23 H1          -6.3100     0.3070     2.0450 ha         1 BOJ       0.127000
     24 H2           3.1150    -2.8320     1.0810 hc         1 BOJ       0.041200
     25 H3           1.4860    -2.2440     1.3340 hc         1 BOJ       0.041200
     26 H4           2.8940    -2.4230    -1.3700 hc         1 BOJ       0.062200
     27 H5           1.2480    -1.8350    -1.1150 hc         1 BOJ       0.062200
     28 H6          -1.3220    -1.3620     0.8530 h1         1 BOJ       0.044200
     29 H7          -2.0160    -0.1990     1.9840 h1         1 BOJ       0.044200
     30 H8          -0.3150     1.4290     1.5290 h1         1 BOJ       0.036200
     31 H9           0.4540    -0.1120     1.9230 h1         1 BOJ       0.036200
     32 H10         -2.1380     0.7770    -2.0650 h1         1 BOJ       0.044200
     33 H11         -1.4080    -0.7800    -1.6490 h1         1 BOJ       0.044200
     34 H12          0.9220     2.8490     0.5960 hn         1 BOJ       0.434300
     35 H13          2.4050     3.6800     0.7490 hn         1 BOJ       0.434300
     36 H14          6.3770     1.6890     0.3090 hn         1 BOJ       0.429300
     37 H15          6.5180     0.0360    -0.0740 hn         1 BOJ       0.429300
     38 H16          0.5770    -4.0970    -0.0920 hc         1 BOJ       0.031367
     39 H17          2.2130    -4.6930    -0.3630 hc         1 BOJ       0.031367
     40 H18          1.5140    -4.7390     1.2540 hc         1 BOJ       0.031367
     41 H19          0.3380     0.8100    -2.1170 h1         1 BOJ       0.036200
     42 H20         -0.3760     2.0220    -1.0500 h1         1 BOJ       0.036200
     43 H21         -3.9050     0.6770     2.0090 ha         1 BOJ       0.129500
     44 H22         -7.5020    -0.4830     0.0130 ha         1 BOJ       0.131000
     45 H23         -6.1940    -0.9230    -2.0510 ha         1 BOJ       0.127000
     46 H24         -3.7860    -0.6120    -2.0910 ha         1 BOJ       0.129500
     47 C2           2.2350    -1.9170    -0.6600 c3         1 BOJ      -0.129700
@<TRIPOS>BOND
     1     1    19 ar  
     2     1    20 ar  
     3     1    23 1   
     4     2    14 1   
     5     2    24 1   
     6     2    25 1   
     7     2    47 1   
     8     3     5 ar  
     9     3    13 ar  
    10     3    47 1   
    11     4     8 1   
    12     4    17 1   
    13     4    28 1   
    14     4    29 1   
    15     5     6 ar  
    16     5    15 1   
    17     6    10 1   
    18     6    11 ar  
    19     7    11 ar  
    20     7    12 1   
    21     7    13 ar  
    22     8    15 1   
    23     8    30 1   
    24     8    31 1   
    25     9    16 1   
    26     9    17 1   
    27     9    32 1   
    28     9    33 1   
    29    10    34 1   
    30    10    35 1   
    31    12    36 1   
    32    12    37 1   
    33    14    38 1   
    34    14    39 1   
    35    14    40 1   
    36    15    16 1   
    37    16    41 1   
    38    16    42 1   
    39    17    18 1   
    40    18    19 ar  
    41    18    22 ar  
    42    19    43 1   
    43    20    21 ar  
    44    20    44 1   
    45    21    22 ar  
    46    21    45 1   
    47    22    46 1   
    48    26    47 1   
    49    27    47 1   
@<TRIPOS>SUBSTRUCTURE
     1 BOJ         1 TEMP              0 ****  ****    0 ROOT
