@<TRIPOS>MOLECULE
BOL
   26    27     1     0     0
SMALL
No Charge or Current Charge


@<TRIPOS>ATOM
      1 I           -2.5710     1.3120     0.1640 i          1 BOL      -0.283000
      2 N            1.6620    -0.8640     0.0020 ns         1 BOL      -0.141000
      3 O            0.3640     0.6370     1.1630 o          1 BOL      -0.553100
      4 C1          -2.0540    -0.8100     0.1480 ca         1 BOL       0.236000
      5 C2          -0.7280    -1.3070     0.2650 ca         1 BOL      -0.127600
      6 C3          -0.5240    -2.7090     0.1610 ca         1 BOL      -0.094000
      7 C4          -1.6040    -3.5840    -0.0430 ca         1 BOL      -0.101000
      8 C5          -2.9070    -3.0800    -0.1520 ca         1 BOL      -0.094000
      9 C6          -3.1260    -1.6970    -0.0590 ca         1 BOL      -0.088000
     10 C7           0.4550    -0.3940     0.5070 c          1 BOL       0.617700
     11 C8           2.9820    -0.3320     0.0150 ca         1 BOL      -0.021000
     12 C9           3.2900     0.9850     0.4260 ca         1 BOL      -0.149000
     13 C10          4.6190     1.4440     0.4050 ca         1 BOL      -0.083500
     14 C11          5.6510     0.5970    -0.0290 ca         1 BOL      -0.136000
     15 C12          5.3540    -0.7100    -0.4460 ca         1 BOL      -0.083500
     16 C13          4.0250    -1.1680    -0.4260 ca         1 BOL      -0.149000
     17 HN           1.5870    -1.7470    -0.4860 hn         1 BOL       0.154000
     18 H3           0.4700    -3.1400     0.2630 ha         1 BOL       0.121000
     19 H4          -1.4290    -4.6560    -0.1130 ha         1 BOL       0.122000
     20 H5          -3.7430    -3.7570    -0.3120 ha         1 BOL       0.121000
     21 H6          -4.1340    -1.3050    -0.1580 ha         1 BOL       0.131000
     22 H9           2.5160     1.6710     0.7550 ha         1 BOL       0.128000
     23 H10          4.8480     2.4590     0.7240 ha         1 BOL       0.113500
     24 H11          6.6790     0.9540    -0.0440 ha         1 BOL       0.115000
     25 H12          6.1520    -1.3670    -0.7860 ha         1 BOL       0.113500
     26 H13          3.8090    -2.1840    -0.7530 ha         1 BOL       0.128000
@<TRIPOS>BOND
     1     1     4 1   
     2     2    10 1   
     3     2    11 1   
     4     2    17 1   
     5     3    10 2   
     6     4     5 ar  
     7     4     9 ar  
     8     5     6 ar  
     9     5    10 1   
    10     6     7 ar  
    11     6    18 1   
    12     7     8 ar  
    13     7    19 1   
    14     8     9 ar  
    15     8    20 1   
    16     9    21 1   
    17    11    12 ar  
    18    11    16 ar  
    19    12    13 ar  
    20    12    22 1   
    21    13    14 ar  
    22    13    23 1   
    23    14    15 ar  
    24    14    24 1   
    25    15    16 ar  
    26    15    25 1   
    27    16    26 1   
@<TRIPOS>SUBSTRUCTURE
     1 BOL         1 TEMP              0 ****  ****    0 ROOT
