@<TRIPOS>MOLECULE
BOL
   26    27     1     0     0
SMALL
bcc


@<TRIPOS>ATOM
      1 I           -2.1370     1.1640    -0.7510 i          1 BOL      -0.145900
      2 N            1.6360    -0.8600    -0.0850 ns         1 BOL      -0.467100
      3 O            0.4240     0.5190     1.2700 o          1 BOL      -0.553100
      4 C1          -1.8890    -0.8510    -0.1890 ca         1 BOL       0.098900
      5 C2          -0.6700    -1.3390     0.2780 ca         1 BOL      -0.127600
      6 C3          -0.5660    -2.6960     0.5800 ca         1 BOL      -0.112000
      7 C4          -1.6490    -3.5460     0.4280 ca         1 BOL      -0.119000
      8 C5          -2.8530    -3.0460    -0.0420 ca         1 BOL      -0.112000
      9 C6          -2.9740    -1.6990    -0.3580 ca         1 BOL      -0.106000
     10 C7           0.5090    -0.4510     0.5420 c          1 BOL       0.684700
     11 C8           2.9280    -0.3200    -0.0300 ca         1 BOL       0.071600
     12 C9           3.2850     0.7940     0.7290 ca         1 BOL      -0.167000
     13 C10          4.5990     1.2440     0.7050 ca         1 BOL      -0.101500
     14 C11          5.5670     0.6080    -0.0580 ca         1 BOL      -0.154000
     15 C12          5.2070    -0.5020    -0.8120 ca         1 BOL      -0.101500
     16 C13          3.9020    -0.9620    -0.7990 ca         1 BOL      -0.167000
     17 HN           1.5360    -1.6510    -0.7040 hn         1 BOL       0.320500
     18 H3           0.3710    -3.0870     0.9560 ha         1 BOL       0.139000
     19 H4          -1.5510    -4.5940     0.6770 ha         1 BOL       0.140000
     20 H5          -3.7050    -3.7000    -0.1700 ha         1 BOL       0.139000
     21 H6          -3.9150    -1.3230    -0.7360 ha         1 BOL       0.149000
     22 H9           2.5600     1.3120     1.3340 ha         1 BOL       0.146000
     23 H10          4.8620     2.1120     1.2970 ha         1 BOL       0.131500
     24 H11          6.5860     0.9700    -0.0660 ha         1 BOL       0.133000
     25 H12          5.9430    -1.0150    -1.4160 ha         1 BOL       0.131500
     26 H13          3.6340    -1.8320    -1.3880 ha         1 BOL       0.146000
@<TRIPOS>BOND
     1     1     4 1   
     2     2    10 1   
     3     2    11 1   
     4     2    17 1   
     5     3    10 2   
     6     4     5 ar  
     7     4     9 ar  
     8     5     6 ar  
     9     5    10 1   
    10     6     7 ar  
    11     6    18 1   
    12     7     8 ar  
    13     7    19 1   
    14     8     9 ar  
    15     8    20 1   
    16     9    21 1   
    17    11    12 ar  
    18    11    16 ar  
    19    12    13 ar  
    20    12    22 1   
    21    13    14 ar  
    22    13    23 1   
    23    14    15 ar  
    24    14    24 1   
    25    15    16 ar  
    26    15    25 1   
    27    16    26 1   
@<TRIPOS>SUBSTRUCTURE
     1 BOL         1 TEMP              0 ****  ****    0 ROOT
