@<TRIPOS>MOLECULE
BOM
   47    46     1     0     0
SMALL
abcg2


@<TRIPOS>ATOM
      1 O1           0.4190    -0.6390    -9.4170 oh         1 BOM      -0.663000
      2 C2           0.7670     0.1230    -8.2800 c3         1 BOM       0.164600
      3 C4           0.0770    -0.4530    -7.0600 c3         1 BOM      -0.081400
      4 C7           0.4160     0.3210    -5.7920 c3         1 BOM      -0.074400
      5 C10         -0.2610    -0.2430    -4.5490 c3         1 BOM      -0.073400
      6 C13          0.0740     0.5330    -3.2820 c3         1 BOM      -0.074400
      7 C16         -0.5910    -0.0350    -2.0340 c3         1 BOM      -0.074400
      8 C19         -0.2760     0.7580    -0.7720 c3         1 BOM      -0.075400
      9 C22         -0.9220     0.1770     0.4790 c3         1 BOM      -0.072400
     10 C25         -0.6310     1.0050     1.7320 c3         1 BOM      -0.043200
     11 C28         -1.2810     0.4470     2.9550 c2         1 BOM      -0.208200
     12 C31         -0.6330     0.0610     4.0600 ce         1 BOM      -0.185000
     13 C33         -1.2990    -0.4830     5.2320 ce         1 BOM      -0.184000
     14 C35         -0.7190    -0.8700     6.3750 c2         1 BOM      -0.203200
     15 C37          0.7340    -0.8180     6.7240 c3         1 BOM      -0.046200
     16 C39          1.0140     0.1340     7.8890 c3         1 BOM      -0.073400
     17 C42          2.4810     0.1360     8.2950 c3         1 BOM      -0.090100
     18 HO1          0.8900    -0.2810   -10.1740 ho         1 BOM       0.442000
     19 H21          0.4720     1.1750    -8.3990 h1         1 BOM       0.014700
     20 H22          1.8530     0.1180    -8.1160 h1         1 BOM       0.014700
     21 H41          0.3680    -1.5010    -6.9380 hc         1 BOM       0.052700
     22 H42         -1.0070    -0.4430    -7.2160 hc         1 BOM       0.052700
     23 H71          0.1290     1.3710    -5.9160 hc         1 BOM       0.036700
     24 H72          1.5010     0.3190    -5.6440 hc         1 BOM       0.036700
     25 H101         0.0290    -1.2920    -4.4210 hc         1 BOM       0.039700
     26 H102        -1.3470    -0.2440    -4.6960 hc         1 BOM       0.039700
     27 H131        -0.2250     1.5790    -3.4080 hc         1 BOM       0.036700
     28 H132         1.1600     0.5430    -3.1400 hc         1 BOM       0.036700
     29 H161        -0.2790    -1.0770    -1.8980 hc         1 BOM       0.038200
     30 H162        -1.6770    -0.0620    -2.1820 hc         1 BOM       0.038200
     31 H191        -0.6070     1.7940    -0.9040 hc         1 BOM       0.037200
     32 H192         0.8090     0.8020    -0.6320 hc         1 BOM       0.037200
     33 H221        -0.5710    -0.8480     0.6320 hc         1 BOM       0.040700
     34 H222        -2.0050     0.1110     0.3340 hc         1 BOM       0.040700
     35 H251        -0.9920     2.0260     1.5640 hc         1 BOM       0.044200
     36 H252         0.4490     1.0780     1.8840 hc         1 BOM       0.044200
     37 H281        -2.3640     0.3460     2.9200 ha         1 BOM       0.166000
     38 H311         0.4480     0.1620     4.0870 ha         1 BOM       0.170000
     39 H331        -2.3790    -0.5780     5.1570 ha         1 BOM       0.167000
     40 H351        -1.3670    -1.2490     7.1600 ha         1 BOM       0.166000
     41 H371         1.3440    -0.5280     5.8660 hc         1 BOM       0.045200
     42 H372         1.0660    -1.8230     7.0100 hc         1 BOM       0.045200
     43 H391         0.3960    -0.1500     8.7460 hc         1 BOM       0.039700
     44 H392         0.7050     1.1440     7.6090 hc         1 BOM       0.039700
     45 H421         2.6640     0.8190     9.1250 hc         1 BOM       0.031700
     46 H422         2.8050    -0.8590     8.6060 hc         1 BOM       0.031700
     47 H423         3.1190     0.4460     7.4650 hc         1 BOM       0.031700
@<TRIPOS>BOND
     1     1     2 1   
     2     1    18 1   
     3     2     3 1   
     4     2    19 1   
     5     2    20 1   
     6     3     4 1   
     7     3    21 1   
     8     3    22 1   
     9     4     5 1   
    10     4    23 1   
    11     4    24 1   
    12     5     6 1   
    13     5    25 1   
    14     5    26 1   
    15     6     7 1   
    16     6    27 1   
    17     6    28 1   
    18     7     8 1   
    19     7    29 1   
    20     7    30 1   
    21     8     9 1   
    22     8    31 1   
    23     8    32 1   
    24     9    10 1   
    25     9    33 1   
    26     9    34 1   
    27    10    11 1   
    28    10    35 1   
    29    10    36 1   
    30    11    12 2   
    31    11    37 1   
    32    12    13 1   
    33    12    38 1   
    34    13    14 2   
    35    13    39 1   
    36    14    15 1   
    37    14    40 1   
    38    15    16 1   
    39    15    41 1   
    40    15    42 1   
    41    16    17 1   
    42    16    43 1   
    43    16    44 1   
    44    17    45 1   
    45    17    46 1   
    46    17    47 1   
@<TRIPOS>SUBSTRUCTURE
     1 BOM         1 TEMP              0 ****  ****    0 ROOT
