@<TRIPOS>MOLECULE
BOM
   47    46     1     0     0
SMALL
No Charge or Current Charge


@<TRIPOS>ATOM
      1 O1           1.2980    -1.0980    -8.8540 oh         1 BOM      -0.663000
      2 C2           1.1610    -0.0790    -7.8580 c3         1 BOM       0.164600
      3 C4           0.6870    -0.7070    -6.5330 c3         1 BOM      -0.081400
      4 C7           0.5150     0.3310    -5.4020 c3         1 BOM      -0.074400
      5 C10          0.0400    -0.2950    -4.0720 c3         1 BOM      -0.073400
      6 C13         -0.1320     0.7440    -2.9420 c3         1 BOM      -0.074400
      7 C16         -0.6070     0.1180    -1.6130 c3         1 BOM      -0.074400
      8 C19         -0.7790     1.1570    -0.4830 c3         1 BOM      -0.075400
      9 C22         -1.2530     0.5300     0.8470 c3         1 BOM      -0.072400
     10 C25         -1.4240     1.5660     1.9780 c3         1 BOM      -0.043200
     11 C28         -1.8930     0.9320     3.2710 c2         1 BOM      -0.208200
     12 C31         -1.1090     0.2640     4.1420 ce         1 BOM      -0.185000
     13 C33         -1.6140    -0.3340     5.3840 ce         1 BOM      -0.184000
     14 C35         -0.8620    -1.0150     6.2790 c2         1 BOM      -0.203200
     15 C37          0.6250    -1.3070     6.2000 c3         1 BOM      -0.046200
     16 C39          1.4870    -0.1050     6.6420 c3         1 BOM      -0.073400
     17 C42          3.0000    -0.3840     6.5630 c3         1 BOM      -0.090100
     18 HO1          1.6000    -0.6520    -9.6770 ho         1 BOM       0.442000
     19 H21          0.4330     0.6750    -8.1840 h1         1 BOM       0.014700
     20 H22          2.1230     0.4260    -7.6970 h1         1 BOM       0.014700
     21 H41          1.4120    -1.4680    -6.2170 hc         1 BOM       0.052700
     22 H42         -0.2680    -1.2210    -6.7000 hc         1 BOM       0.052700
     23 H71         -0.2080     1.0930    -5.7200 hc         1 BOM       0.036700
     24 H72          1.4700     0.8450    -5.2370 hc         1 BOM       0.036700
     25 H101         0.7630    -1.0570    -3.7540 hc         1 BOM       0.039700
     26 H102        -0.9150    -0.8090    -4.2370 hc         1 BOM       0.039700
     27 H131        -0.8550     1.5050    -3.2600 hc         1 BOM       0.036700
     28 H132         0.8230     1.2580    -2.7770 hc         1 BOM       0.036700
     29 H161         0.1170    -0.6440    -1.2950 hc         1 BOM       0.038200
     30 H162        -1.5620    -0.3960    -1.7770 hc         1 BOM       0.038200
     31 H191        -1.5020     1.9180    -0.8010 hc         1 BOM       0.037200
     32 H192         0.1770     1.6710    -0.3180 hc         1 BOM       0.037200
     33 H221        -0.5310    -0.2320     1.1650 hc         1 BOM       0.040700
     34 H222        -2.2090     0.0170     0.6840 hc         1 BOM       0.040700
     35 H251        -2.1430     2.3320     1.6590 hc         1 BOM       0.044200
     36 H252        -0.4710     2.0840     2.1410 hc         1 BOM       0.044200
     37 H281        -2.9600     1.0530     3.4670 ha         1 BOM       0.166000
     38 H311        -0.0440     0.1530     3.9280 ha         1 BOM       0.170000
     39 H331        -2.6810    -0.2050     5.5800 ha         1 BOM       0.167000
     40 H351        -1.3370    -1.4190     7.1750 ha         1 BOM       0.166000
     41 H371         0.9020    -1.6030     5.1800 hc         1 BOM       0.045200
     42 H372         0.8630    -2.1670     6.8390 hc         1 BOM       0.045200
     43 H391         1.2260     0.1660     7.6720 hc         1 BOM       0.039700
     44 H392         1.2520     0.7640     6.0150 hc         1 BOM       0.039700
     45 H421         3.5680     0.4960     6.8880 hc         1 BOM       0.031700
     46 H422         3.2740    -1.2260     7.2090 hc         1 BOM       0.031700
     47 H423         3.2980    -0.6230     5.5350 hc         1 BOM       0.031700
@<TRIPOS>BOND
     1     1     2 1   
     2     1    18 1   
     3     2     3 1   
     4     2    19 1   
     5     2    20 1   
     6     3     4 1   
     7     3    21 1   
     8     3    22 1   
     9     4     5 1   
    10     4    23 1   
    11     4    24 1   
    12     5     6 1   
    13     5    25 1   
    14     5    26 1   
    15     6     7 1   
    16     6    27 1   
    17     6    28 1   
    18     7     8 1   
    19     7    29 1   
    20     7    30 1   
    21     8     9 1   
    22     8    31 1   
    23     8    32 1   
    24     9    10 1   
    25     9    33 1   
    26     9    34 1   
    27    10    11 1   
    28    10    35 1   
    29    10    36 1   
    30    11    12 2   
    31    11    37 1   
    32    12    13 1   
    33    12    38 1   
    34    13    14 2   
    35    13    39 1   
    36    14    15 1   
    37    14    40 1   
    38    15    16 1   
    39    15    41 1   
    40    15    42 1   
    41    16    17 1   
    42    16    43 1   
    43    16    44 1   
    44    17    45 1   
    45    17    46 1   
    46    17    47 1   
@<TRIPOS>SUBSTRUCTURE
     1 BOM         1 TEMP              0 ****  ****    0 ROOT
