@<TRIPOS>MOLECULE
BOP
   16    16     1     0     0
SMALL
No Charge or Current Charge


@<TRIPOS>ATOM
      1 C2          -0.2070     0.0050     2.1900 ca         1 BOP       0.154100
      2 C3           1.0420    -0.0030     1.5290 ca         1 BOP      -0.174500
      3 C4           1.0930    -0.0170     0.1230 ca         1 BOP      -0.046000
      4 C5          -0.0970    -0.0230    -0.6230 ca         1 BOP      -0.058900
      5 C6          -1.3410    -0.0150     0.0300 ca         1 BOP      -0.046000
      6 O1          -0.3210     0.0190     3.5650 os         1 BOP      -0.338100
      7 C7           0.8290     0.0270     4.4300 c3         1 BOP       0.147900
      8 Br1         -0.0240    -0.0420    -2.5340 br         1 BOP      -0.101100
      9 C1          -1.3910    -0.0010     1.4350 ca         1 BOP      -0.174500
     10 H3           1.9750     0.0020     2.0840 ha         1 BOP       0.125500
     11 H4           2.0550    -0.0230    -0.3860 ha         1 BOP       0.128500
     12 H6          -2.2620    -0.0200    -0.5490 ha         1 BOP       0.128500
     13 H71          0.5140     0.0380     5.4810 h1         1 BOP       0.043033
     14 H72          1.4440    -0.8680     4.2700 h1         1 BOP       0.043033
     15 H73          1.4460     0.9170     4.2520 h1         1 BOP       0.043033
     16 H1          -2.3530     0.0050     1.9410 ha         1 BOP       0.125500
@<TRIPOS>BOND
     1     1     2 ar  
     2     1     6 1   
     3     1     9 ar  
     4     2     3 ar  
     5     2    10 1   
     6     3     4 ar  
     7     3    11 1   
     8     4     5 ar  
     9     4     8 1   
    10     5     9 ar  
    11     5    12 1   
    12     6     7 1   
    13     7    13 1   
    14     7    14 1   
    15     7    15 1   
    16     9    16 1   
@<TRIPOS>SUBSTRUCTURE
     1 BOP         1 TEMP              0 ****  ****    0 ROOT
