@<TRIPOS>MOLECULE
BOP
   16    16     1     0     0
SMALL
bcc


@<TRIPOS>ATOM
      1 C2          -0.1920     0.0050     2.2030 ca         1 BOP       0.154100
      2 C3           1.0370    -0.0020     1.5470 ca         1 BOP      -0.192500
      3 C4           1.0860    -0.0160     0.1580 ca         1 BOP      -0.064000
      4 C5          -0.0880    -0.0230    -0.5750 ca         1 BOP      -0.058900
      5 C6          -1.3200    -0.0150     0.0680 ca         1 BOP      -0.064000
      6 O1          -0.3410     0.0180     3.5370 os         1 BOP      -0.314900
      7 C7           0.8180     0.0260     4.3490 c3         1 BOP       0.124700
      8 BR1         -0.0180    -0.0430    -2.4640 br         1 BOP      -0.101100
      9 C1          -1.3680    -0.0010     1.4490 ca         1 BOP      -0.192500
     10 H3           1.9700     0.0030     2.0940 ha         1 BOP       0.143500
     11 H4           2.0510    -0.0220    -0.3320 ha         1 BOP       0.146500
     12 H6          -2.2440    -0.0190    -0.4950 ha         1 BOP       0.146500
     13 H71          0.4720     0.0350     5.3790 h1         1 BOP       0.043033
     14 H72          1.4330    -0.8640     4.1910 h1         1 BOP       0.043033
     15 H73          1.4330     0.9130     4.1750 h1         1 BOP       0.043033
     16 H1          -2.3270     0.0060     1.9530 ha         1 BOP       0.143500
@<TRIPOS>BOND
     1     1     2 ar  
     2     1     6 1   
     3     1     9 ar  
     4     2     3 ar  
     5     2    10 1   
     6     3     4 ar  
     7     3    11 1   
     8     4     5 ar  
     9     4     8 1   
    10     5     9 ar  
    11     5    12 1   
    12     6     7 1   
    13     7    13 1   
    14     7    14 1   
    15     7    15 1   
    16     9    16 1   
@<TRIPOS>SUBSTRUCTURE
     1 BOP         1 TEMP              0 ****  ****    0 ROOT
