@<TRIPOS>MOLECULE
BOQ
   35    35     1     0     0
SMALL
abcg2


@<TRIPOS>ATOM
      1 C4           2.0490     0.2190     0.0500 c          1 BOQ       0.645700
      2 C6           0.1200     2.8040    -0.2170 c3         1 BOQ       0.114500
      3 C7          -1.5570    -0.3710    -0.0270 cc         1 BOQ       0.134300
      4 C13         -2.7980    -2.4930     0.0930 c3         1 BOQ      -0.084433
      5 C15         -3.7490    -0.4290     1.1350 c3         1 BOQ      -0.084433
      6 C16          4.2120    -2.6270     0.6480 c3         1 BOQ      -0.097100
      7 C12          3.9420    -1.1710     0.3560 c3         1 BOQ       0.167600
      8 O8           2.5190    -0.9940     0.3010 os         1 BOQ      -0.440100
      9 O9           2.7510     1.1900    -0.1300 o          1 BOQ      -0.517000
     10 C1           0.5890     0.2340     0.0130 cd         1 BOQ      -0.230600
     11 C3          -0.3090    -0.8820     0.0640 cd         1 BOQ      -0.135000
     12 C14         -3.6310    -0.6390    -1.3610 c3         1 BOQ      -0.084433
     13 O5          -1.4750     0.9840    -0.1230 os         1 BOQ      -0.226000
     14 C2          -0.1870     1.3510    -0.0980 cc         1 BOQ       0.223300
     15 N10          0.3920     3.1530    -1.6060 n8         1 BOQ      -0.988200
     16 H1          -0.7530     3.3680     0.1170 h1         1 BOQ       0.056200
     17 H2           0.9340     3.0470     0.4730 h1         1 BOQ       0.056200
     18 H3          -3.7870    -2.9520     0.0690 hc         1 BOQ       0.040589
     19 H4          -2.2140    -2.9200    -0.7240 hc         1 BOQ       0.040589
     20 H5          -2.3240    -2.7750     1.0350 hc         1 BOQ       0.040589
     21 H6          -3.2850    -0.6800     2.0910 hc         1 BOQ       0.040589
     22 H7          -3.8620     0.6540     1.0850 hc         1 BOQ       0.040589
     23 H8          -4.7490    -0.8650     1.1240 hc         1 BOQ       0.040589
     24 H9           3.8180    -3.2740    -0.1360 hc         1 BOQ       0.046367
     25 H10          5.2890    -2.7870     0.7030 hc         1 BOQ       0.046367
     26 H11          3.7800    -2.9310     1.6010 hc         1 BOQ       0.046367
     27 H12          4.3620    -0.5340     1.1370 h1         1 BOQ       0.047200
     28 H13          4.3880    -0.8750    -0.5950 h1         1 BOQ       0.047200
     29 H14         -0.0500    -1.9240     0.1530 ha         1 BOQ       0.152000
     30 H15         -4.6320    -1.0750    -1.3690 hc         1 BOQ       0.040589
     31 H16         -3.7390     0.4360    -1.5040 hc         1 BOQ       0.040589
     32 H17         -3.0830    -1.0420    -2.2150 hc         1 BOQ       0.040589
     33 H18          0.4650     4.1600    -1.6790 hn         1 BOQ       0.404500
     34 H19          1.3030     2.7910    -1.8590 hn         1 BOQ       0.404500
     35 C11         -2.9270    -0.9760    -0.0400 c3         1 BOQ      -0.070300
@<TRIPOS>BOND
     1     1     8 1   
     2     1     9 2   
     3     1    10 1   
     4     2    14 1   
     5     2    15 1   
     6     2    16 1   
     7     2    17 1   
     8     3    11 2   
     9     3    13 1   
    10     3    35 1   
    11     4    18 1   
    12     4    19 1   
    13     4    20 1   
    14     4    35 1   
    15     5    21 1   
    16     5    22 1   
    17     5    23 1   
    18     5    35 1   
    19     6     7 1   
    20     6    24 1   
    21     6    25 1   
    22     6    26 1   
    23     7     8 1   
    24     7    27 1   
    25     7    28 1   
    26    10    11 1   
    27    10    14 2   
    28    11    29 1   
    29    12    30 1   
    30    12    31 1   
    31    12    32 1   
    32    12    35 1   
    33    13    14 1   
    34    15    33 1   
    35    15    34 1   
@<TRIPOS>SUBSTRUCTURE
     1 BOQ         1 TEMP              0 ****  ****    0 ROOT
