@<TRIPOS>MOLECULE
BOQ
   35    35     1     0     0
SMALL
No Charge or Current Charge


@<TRIPOS>ATOM
      1 C4           2.0000     0.2680     0.0590 c          1 BOQ       0.645700
      2 C6           0.0820     2.8720    -0.3230 c3         1 BOQ       0.114500
      3 C7          -1.6410    -0.3320    -0.0350 cc         1 BOQ       0.134300
      4 C13         -2.8290    -2.5520     0.1760 c3         1 BOQ      -0.084433
      5 C15         -3.8400    -0.4600     1.1600 c3         1 BOQ      -0.084433
      6 C16          4.2550    -2.6190     0.5170 c3         1 BOQ      -0.097100
      7 C12          3.9480    -1.1270     0.3190 c3         1 BOQ       0.167600
      8 O8           2.5200    -0.9880     0.2370 os         1 BOQ      -0.440100
      9 O9           2.6950     1.2710    -0.0360 o          1 BOQ      -0.517000
     10 C1           0.5210     0.2800    -0.0110 cd         1 BOQ      -0.230600
     11 C3          -0.3670    -0.8190     0.0800 cd         1 BOQ      -0.135000
     12 C14         -3.7300    -0.7580    -1.3520 c3         1 BOQ      -0.084433
     13 O5          -1.5890     1.0350    -0.1930 os         1 BOQ      -0.226000
     14 C2          -0.2590     1.3980    -0.1790 cc         1 BOQ       0.223300
     15 N10          0.8850     3.1920    -1.5350 n8         1 BOQ      -0.988200
     16 H1          -0.8510     3.4510    -0.3550 h1         1 BOQ       0.056200
     17 H2           0.6410     3.1910     0.5690 h1         1 BOQ       0.056200
     18 H3          -3.8050    -3.0540     0.1930 hc         1 BOQ       0.040589
     19 H4          -2.2420    -2.9880    -0.6410 hc         1 BOQ       0.040589
     20 H5          -2.3190    -2.7790     1.1210 hc         1 BOQ       0.040589
     21 H6          -3.3300    -0.6200     2.1180 hc         1 BOQ       0.040589
     22 H7          -4.0100     0.6170     1.0440 hc         1 BOQ       0.040589
     23 H8          -4.8190    -0.9520     1.2100 hc         1 BOQ       0.040589
     24 H9           3.8740    -3.2080    -0.3260 hc         1 BOQ       0.046367
     25 H10          5.3370    -2.7780     0.5860 hc         1 BOQ       0.046367
     26 H11          3.7940    -2.9890     1.4400 hc         1 BOQ       0.046367
     27 H12          4.3500    -0.5540     1.1650 h1         1 BOQ       0.047200
     28 H13          4.4300    -0.7730    -0.6030 h1         1 BOQ       0.047200
     29 H14         -0.0890    -1.8590     0.2160 ha         1 BOQ       0.152000
     30 H15         -4.7070    -1.2570    -1.3700 hc         1 BOQ       0.040589
     31 H16         -3.8980     0.3150    -1.5060 hc         1 BOQ       0.040589
     32 H17         -3.1420    -1.1320    -2.1990 hc         1 BOQ       0.040589
     33 H18          1.1350     4.1890    -1.5230 hn         1 BOQ       0.404500
     34 H19          1.7940     2.7170    -1.4450 hn         1 BOQ       0.404500
     35 C11         -2.9940    -1.0210    -0.0120 c3         1 BOQ      -0.070300
@<TRIPOS>BOND
     1     1     8 1   
     2     1     9 2   
     3     1    10 1   
     4     2    14 1   
     5     2    15 1   
     6     2    16 1   
     7     2    17 1   
     8     3    11 2   
     9     3    13 1   
    10     3    35 1   
    11     4    18 1   
    12     4    19 1   
    13     4    20 1   
    14     4    35 1   
    15     5    21 1   
    16     5    22 1   
    17     5    23 1   
    18     5    35 1   
    19     6     7 1   
    20     6    24 1   
    21     6    25 1   
    22     6    26 1   
    23     7     8 1   
    24     7    27 1   
    25     7    28 1   
    26    10    11 1   
    27    10    14 2   
    28    11    29 1   
    29    12    30 1   
    30    12    31 1   
    31    12    32 1   
    32    12    35 1   
    33    13    14 1   
    34    15    33 1   
    35    15    34 1   
@<TRIPOS>SUBSTRUCTURE
     1 BOQ         1 TEMP              0 ****  ****    0 ROOT
