@<TRIPOS>MOLECULE
BOS
   32    33     1     0     0
SMALL
No Charge or Current Charge


@<TRIPOS>ATOM
      1 N1          -5.3090    -0.7970    -1.2190 n8         1 BOS      -1.003100
      2 S1          -5.0170     0.0890     0.1220 sy         1 BOS       1.132600
      3 O1          -5.4740    -0.7410     1.2370 o          1 BOS      -0.546000
      4 O2          -5.5950     1.3940    -0.1890 o          1 BOS      -0.546000
      5 C1          -3.2290     0.1890     0.1030 ca         1 BOS      -0.307500
      6 C2          -2.5830     1.2890    -0.4950 ca         1 BOS       0.022000
      7 C3          -1.1800     1.3560    -0.5040 ca         1 BOS      -0.177500
      8 C4          -0.4020     0.3360     0.0750 ca         1 BOS       0.037000
      9 C5          -1.0580    -0.7590     0.6780 ca         1 BOS      -0.177500
     10 C6          -2.4620    -0.8340     0.6920 ca         1 BOS       0.022000
     11 N2           1.0110     0.4830     0.0280 ns         1 BOS      -0.139000
     12 C7           2.0570    -0.3710     0.3570 c          1 BOS       0.626700
     13 O3           1.8730    -1.5130     0.7610 o          1 BOS      -0.575100
     14 C8           3.4560     0.2250     0.2110 ca         1 BOS      -0.161600
     15 C9           3.6110     1.6370     0.1540 ca         1 BOS      -0.083000
     16 C10          4.8770     2.2270     0.0260 ca         1 BOS      -0.113000
     17 C11          6.0200     1.4250    -0.0490 ca         1 BOS      -0.080000
     18 C12          5.8930     0.0320     0.0050 ca         1 BOS      -0.096000
     19 C13          4.6330    -0.5830     0.1350 ca         1 BOS      -0.028000
     20 S2           4.6240    -2.3740     0.1550 sh         1 BOS      -0.200800
     21 HN11        -4.4490    -0.6750    -1.7470 hn         1 BOS       0.472000
     22 HN12        -5.9780    -0.2000    -1.7010 hn         1 BOS       0.472000
     23 H2          -3.1590     2.0930    -0.9520 ha         1 BOS       0.138500
     24 H3          -0.6950     2.2110    -0.9690 ha         1 BOS       0.134500
     25 H5          -0.5020    -1.5610     1.1520 ha         1 BOS       0.134500
     26 H6          -2.9470    -1.6890     1.1620 ha         1 BOS       0.138500
     27 HN2          1.3110     1.3820    -0.3220 hn         1 BOS       0.161000
     28 H9           2.7550     2.3040     0.2290 ha         1 BOS       0.118000
     29 H10          4.9710     3.3110    -0.0100 ha         1 BOS       0.123000
     30 H11          7.0030     1.8810    -0.1480 ha         1 BOS       0.122000
     31 H12          6.7880    -0.5850    -0.0580 ha         1 BOS       0.134000
     32 HS2          3.3500    -2.5060     0.6020 hs         1 BOS       0.246800
@<TRIPOS>BOND
     1     1     2 1   
     2     1    21 1   
     3     1    22 1   
     4     2     3 2   
     5     2     4 2   
     6     2     5 1   
     7     5     6 ar  
     8     5    10 ar  
     9     6     7 ar  
    10     6    23 1   
    11     7     8 ar  
    12     7    24 1   
    13     8     9 ar  
    14     8    11 1   
    15     9    10 ar  
    16     9    25 1   
    17    10    26 1   
    18    11    12 1   
    19    11    27 1   
    20    12    13 2   
    21    12    14 1   
    22    14    15 ar  
    23    14    19 ar  
    24    15    16 ar  
    25    15    28 1   
    26    16    17 ar  
    27    16    29 1   
    28    17    18 ar  
    29    17    30 1   
    30    18    19 ar  
    31    18    31 1   
    32    19    20 1   
    33    20    32 1   
@<TRIPOS>SUBSTRUCTURE
     1 BOS         1 TEMP              0 ****  ****    0 ROOT
