@<TRIPOS>MOLECULE
BOS
   32    33     1     0     0
SMALL
bcc


@<TRIPOS>ATOM
      1 N1          -5.1520    -1.0520    -1.0210 n8         1 BOS      -0.892700
      2 S1          -4.8780     0.2250    -0.0090 sy         1 BOS       1.274200
      3 O1          -5.3370    -0.2080     1.3040 o          1 BOS      -0.616800
      4 O2          -5.3830     1.4870    -0.5320 o          1 BOS      -0.616800
      5 C1          -3.1150     0.3000    -0.0240 ca         1 BOS      -0.307500
      6 C2          -2.4640     1.3400    -0.6710 ca         1 BOS       0.004000
      7 C3          -1.0850     1.3870    -0.6550 ca         1 BOS      -0.195500
      8 C4          -0.3390     0.4050     0.0040 ca         1 BOS       0.129600
      9 C5          -1.0080    -0.6380     0.6550 ca         1 BOS      -0.195500
     10 C6          -2.3900    -0.6820     0.6370 ca         1 BOS       0.004000
     11 N2           1.0440     0.5440    -0.0410 ns         1 BOS      -0.465100
     12 C7           2.0070    -0.2320     0.5260 c          1 BOS       0.693700
     13 O3           1.7800    -1.2480     1.1550 o          1 BOS      -0.575100
     14 C8           3.3930     0.2860     0.3190 ca         1 BOS      -0.161600
     15 C9           3.6540     1.6290     0.5900 ca         1 BOS      -0.101000
     16 C10          4.9250     2.1590     0.4410 ca         1 BOS      -0.131000
     17 C11          5.9560     1.3380     0.0110 ca         1 BOS      -0.098000
     18 C12          5.7170    -0.0030    -0.2430 ca         1 BOS      -0.114000
     19 C13          4.4450    -0.5480    -0.0840 ca         1 BOS       0.098900
     20 S2           4.2760    -2.2450    -0.5580 sh         1 BOS      -0.327700
     21 HN11        -4.9700    -0.8280    -1.9940 hn         1 BOS       0.416800
     22 HN12        -6.0940    -1.4160    -0.9150 hn         1 BOS       0.416800
     23 H2          -3.0160     2.1160    -1.1830 ha         1 BOS       0.156500
     24 H3          -0.5790     2.2020    -1.1560 ha         1 BOS       0.152500
     25 H5          -0.4680    -1.4140     1.1690 ha         1 BOS       0.152500
     26 H6          -2.8920    -1.4960     1.1430 ha         1 BOS       0.156500
     27 HN2          1.3720     1.3220    -0.5950 hn         1 BOS       0.327500
     28 H9           2.8530     2.2700     0.9370 ha         1 BOS       0.136000
     29 H10          5.1060     3.2020     0.6610 ha         1 BOS       0.141000
     30 H11          6.9560     1.7330    -0.1150 ha         1 BOS       0.140000
     31 H12          6.5330    -0.6400    -0.5600 ha         1 BOS       0.152000
     32 HS2          3.3480    -2.6180     0.3270 hs         1 BOS       0.246800
@<TRIPOS>BOND
     1     1     2 1   
     2     1    21 1   
     3     1    22 1   
     4     2     3 2   
     5     2     4 2   
     6     2     5 1   
     7     5     6 ar  
     8     5    10 ar  
     9     6     7 ar  
    10     6    23 1   
    11     7     8 ar  
    12     7    24 1   
    13     8     9 ar  
    14     8    11 1   
    15     9    10 ar  
    16     9    25 1   
    17    10    26 1   
    18    11    12 1   
    19    11    27 1   
    20    12    13 2   
    21    12    14 1   
    22    14    15 ar  
    23    14    19 ar  
    24    15    16 ar  
    25    15    28 1   
    26    16    17 ar  
    27    16    29 1   
    28    17    18 ar  
    29    17    30 1   
    30    18    19 ar  
    31    18    31 1   
    32    19    20 1   
    33    20    32 1   
@<TRIPOS>SUBSTRUCTURE
     1 BOS         1 TEMP              0 ****  ****    0 ROOT
