@<TRIPOS>MOLECULE
BOT
   14    15     1     0     0
SMALL
abcg2


@<TRIPOS>ATOM
      1 C8          -0.7130     0.0280    -2.0690 cc         1 BOT       0.387100
      2 N1          -1.5170     0.0320    -1.0680 nd         1 BOT      -0.523100
      3 C9          -0.8180     0.0140     0.1180 ca         1 BOT       0.085400
      4 S1           0.9830     0.0030    -1.7020 ss         1 BOT       0.019800
      5 C10          0.5800    -0.0040    -0.0200 ca         1 BOT      -0.182000
      6 C11          1.4230    -0.0220     1.0860 ca         1 BOT      -0.073000
      7 C12          0.8420    -0.0240     2.3400 ca         1 BOT      -0.099000
      8 C13         -0.5500    -0.0060     2.4930 ca         1 BOT      -0.112000
      9 C14         -1.3850     0.0130     1.3930 ca         1 BOT      -0.053000
     10 H8          -1.0380     0.0400    -3.1000 h5         1 BOT       0.058800
     11 H11          2.4990    -0.0360     0.9720 ha         1 BOT       0.124000
     12 H12          1.4760    -0.0380     3.2170 ha         1 BOT       0.116000
     13 H13         -0.9760    -0.0080     3.4880 ha         1 BOT       0.118000
     14 H14         -2.4610     0.0260     1.5050 ha         1 BOT       0.132000
@<TRIPOS>BOND
     1     1     2 2   
     2     1     4 1   
     3     1    10 1   
     4     2     3 1   
     5     3     5 ar  
     6     3     9 ar  
     7     4     5 1   
     8     5     6 ar  
     9     6     7 ar  
    10     6    11 1   
    11     7     8 ar  
    12     7    12 1   
    13     8     9 ar  
    14     8    13 1   
    15     9    14 1   
@<TRIPOS>SUBSTRUCTURE
     1 BOT         1 TEMP              0 ****  ****    0 ROOT
