@<TRIPOS>MOLECULE
BOU
   51    53     1     0     0
SMALL
No Charge or Current Charge


@<TRIPOS>ATOM
      1 S1          -1.6630    -0.8590    -0.8580 ss         1 BOU      -0.444000
      2 C1          -3.4430    -0.8550    -1.3980 c5         1 BOU       0.129000
      3 C2          -4.2820    -0.5550    -0.0900 c5         1 BOU       0.035500
      4 N1          -3.3570    -0.7850     1.0920 n7         1 BOU      -0.885400
      5 C3          -2.0880    -0.1050     0.7690 c5         1 BOU       0.332500
      6 C4          -0.9810    -0.3690     1.8180 c3         1 BOU       0.007700
      7 C5          -0.7030    -1.8870     1.9540 c          1 BOU       0.584900
      8 O1           0.4020    -2.4140     1.8320 o          1 BOU      -0.532100
      9 C6          -3.5790     0.1730    -2.5550 c3         1 BOU      -0.065600
     10 C7          -3.7560    -2.2650    -1.9580 c3         1 BOU      -0.065600
     11 C8          -5.0160     0.8560    -0.1730 c          1 BOU       0.699000
     12 O2          -6.1540     0.8950    -0.6190 o          1 BOU      -0.724000
     13 O3          -4.5050     1.8420     0.3450 o          1 BOU      -0.724000
     14 N2           0.2630     0.4050     1.5730 ns         1 BOU      -0.481900
     15 C9           1.1780     0.7550     2.5360 c          1 BOU       0.612700
     16 O4           1.0320     0.4140     3.7040 o          1 BOU      -0.680100
     17 C10          2.3270     1.6290     2.0960 ca         1 BOU      -0.102600
     18 C11          2.7560     2.7010     2.9050 ca         1 BOU      -0.080000
     19 C12          3.8050     3.5310     2.4780 ca         1 BOU      -0.146000
     20 C13          4.4370     3.2860     1.2500 ca         1 BOU      -0.117000
     21 C14          4.0330     2.1980     0.4580 ca         1 BOU      -0.106000
     22 C15          2.9800     1.3410     0.8600 cp         1 BOU       0.053000
     23 C16          2.6960     0.1390     0.0150 cp         1 BOU      -0.044000
     24 C17          3.2570    -1.1060     0.3870 ca         1 BOU      -0.102000
     25 C18          3.0930    -2.2490    -0.4140 ca         1 BOU      -0.134000
     26 C19          2.3660    -2.1700    -1.6120 ca         1 BOU      -0.130000
     27 C20          1.7970    -0.9500    -2.0080 ca         1 BOU      -0.081000
     28 C21          1.9570     0.1950    -1.2030 ca         1 BOU      -0.111600
     29 C22          1.3060     1.5090    -1.5640 c          1 BOU       0.720600
     30 O5           1.4010     1.9010    -2.7180 o          1 BOU      -0.702500
     31 O6           0.6250     2.0600    -0.7110 o          1 BOU      -0.702500
     32 H3          -5.1050    -1.2800    -0.0170 h1         1 BOU       0.049700
     33 HN4         -3.7680    -0.3540     1.9290 hn         1 BOU       0.413000
     34 H5          -2.2220     0.9790     0.6420 h2         1 BOU       0.116700
     35 H6          -1.3840    -0.0480     2.7860 h1         1 BOU       0.060700
     36 HO8         -1.5900    -2.5100     2.2040 h4         1 BOU      -0.013800
     37 H9          -2.9400    -0.1000    -3.4030 hc         1 BOU       0.029533
     38 H9A         -4.6090     0.2250    -2.9260 hc         1 BOU       0.029533
     39 H9B         -3.2790     1.1790    -2.2390 hc         1 BOU       0.029533
     40 H10         -3.6110    -3.0360    -1.1910 hc         1 BOU       0.029533
     41 H10A        -4.7960    -2.3320    -2.3020 hc         1 BOU       0.029533
     42 H10B        -3.1070    -2.5150    -2.8060 hc         1 BOU       0.029533
     43 HN14         0.4260     0.8060     0.6470 hn         1 BOU       0.408500
     44 H18          2.2620     2.9020     3.8540 ha         1 BOU       0.111000
     45 H19          4.1250     4.3660     3.0980 ha         1 BOU       0.086000
     46 H20          5.2510     3.9260     0.9200 ha         1 BOU       0.086000
     47 H21          4.5540     1.9990    -0.4750 ha         1 BOU       0.112000
     48 H24          3.8370    -1.1780     1.3040 ha         1 BOU       0.093000
     49 H25          3.5340    -3.1940    -0.1070 ha         1 BOU       0.081000
     50 H26          2.2380    -3.0560    -2.2300 ha         1 BOU       0.082000
     51 H27          1.2180    -0.8940    -2.9280 ha         1 BOU       0.124000
@<TRIPOS>BOND
     1     1     2 1   
     2     1     5 1   
     3     2     3 1   
     4     2     9 1   
     5     2    10 1   
     6     3     4 1   
     7     3    11 1   
     8     3    32 1   
     9     4     5 1   
    10     4    33 1   
    11     5     6 1   
    12     5    34 1   
    13     6     7 1   
    14     6    14 1   
    15     6    35 1   
    16     7     8 2   
    17     7    36 1   
    18     9    37 1   
    19     9    38 1   
    20     9    39 1   
    21    10    40 1   
    22    10    41 1   
    23    10    42 1   
    24    11    12 1   
    25    11    13 1   
    26    14    15 1   
    27    14    43 1   
    28    15    16 2   
    29    15    17 1   
    30    17    18 ar  
    31    17    22 ar  
    32    18    19 ar  
    33    18    44 1   
    34    19    20 ar  
    35    19    45 1   
    36    20    21 ar  
    37    20    46 1   
    38    21    22 ar  
    39    21    47 1   
    40    22    23 1   
    41    23    24 ar  
    42    23    28 ar  
    43    24    25 ar  
    44    24    48 1   
    45    25    26 ar  
    46    25    49 1   
    47    26    27 ar  
    48    26    50 1   
    49    27    28 ar  
    50    27    51 1   
    51    28    29 1   
    52    29    30 1   
    53    29    31 1   
@<TRIPOS>SUBSTRUCTURE
     1 BOU         1 TEMP              0 ****  ****    0 ROOT
