@<TRIPOS>MOLECULE
BOU
   51    53     1     0     0
SMALL
bcc


@<TRIPOS>ATOM
      1 S1          -1.7200    -0.3520    -0.9960 ss         1 BOU      -0.348200
      2 C1          -3.4380    -0.9690    -1.2620 c5         1 BOU       0.081100
      3 C2          -4.2550    -0.2790    -0.1470 c5         1 BOU       0.035500
      4 N1          -3.3720    -0.2460     1.0060 n7         1 BOU      -0.830200
      5 C3          -2.0690     0.2850     0.6830 c5         1 BOU       0.284600
      6 C4          -1.0310    -0.1990     1.7020 c3         1 BOU       0.007700
      7 C5          -0.8310    -1.6930     1.5770 c          1 BOU       0.584900
      8 O1           0.2370    -2.2420     1.5460 o          1 BOU      -0.532100
      9 C6          -3.8680    -0.6150    -2.6800 c3         1 BOU      -0.065600
     10 C7          -3.4700    -2.4840    -1.0830 c3         1 BOU      -0.065600
     11 C8          -4.8540     1.0850    -0.5690 c          1 BOU       0.909600
     12 O2          -5.9650     1.0300    -1.1330 o          1 BOU      -0.829300
     13 O3          -4.1990     2.1130    -0.3100 o          1 BOU      -0.829300
     14 N2           0.1860     0.5400     1.5610 ns         1 BOU      -0.548900
     15 C9           1.1320     0.5450     2.5030 c          1 BOU       0.679700
     16 O4           1.0280    -0.0020     3.5960 o          1 BOU      -0.680100
     17 C10          2.3330     1.3700     2.1530 ca         1 BOU      -0.102600
     18 C11          2.7860     2.2800     3.1040 ca         1 BOU      -0.098000
     19 C12          3.8460     3.1290     2.8250 ca         1 BOU      -0.164000
     20 C13          4.4740     3.0530     1.5900 ca         1 BOU      -0.135000
     21 C14          4.0500     2.1220     0.6530 ca         1 BOU      -0.124000
     22 C15          2.9790     1.2700     0.9170 cp         1 BOU       0.053000
     23 C16          2.6690     0.2060    -0.0790 cp         1 BOU      -0.044000
     24 C17          3.2210    -1.0540     0.1370 ca         1 BOU      -0.120000
     25 C18          3.0620    -2.0720    -0.7900 ca         1 BOU      -0.152000
     26 C19          2.3650    -1.8280    -1.9640 ca         1 BOU      -0.148000
     27 C20          1.8270    -0.5710    -2.1930 ca         1 BOU      -0.099000
     28 C21          1.9530     0.4480    -1.2540 ca         1 BOU      -0.111600
     29 C22          1.2510     1.7640    -1.5100 c          1 BOU       0.931200
     30 O5           1.3070     2.2360    -2.6550 o          1 BOU      -0.807800
     31 O6           0.6400     2.2580    -0.5310 o          1 BOU      -0.807800
     32 H3          -5.0960    -0.9370     0.0960 h1         1 BOU       0.049700
     33 HN4         -3.7800     0.2980     1.7570 hn         1 BOU       0.357800
     34 H5          -2.0360     1.3760     0.6410 h2         1 BOU       0.116700
     35 H6          -1.4600    -0.0300     2.7010 h1         1 BOU       0.060700
     36 HO8         -1.7760    -2.2620     1.5580 h4         1 BOU      -0.013800
     37 H9          -3.2550    -1.1530    -3.4050 hc         1 BOU       0.029533
     38 H9A         -4.9070    -0.9000    -2.8450 hc         1 BOU       0.029533
     39 H9B         -3.7660     0.4500    -2.8840 hc         1 BOU       0.029533
     40 H10         -3.2220    -2.7690    -0.0620 hc         1 BOU       0.029533
     41 H10A        -4.4670    -2.8700    -1.3110 hc         1 BOU       0.029533
     42 H10B        -2.7630    -2.9750    -1.7530 hc         1 BOU       0.029533
     43 HN14         0.3300     1.1390     0.7270 hn         1 BOU       0.408500
     44 H18          2.2900     2.3380     4.0650 ha         1 BOU       0.129000
     45 H19          4.1790     3.8420     3.5670 ha         1 BOU       0.104000
     46 H20          5.3060     3.7080     1.3610 ha         1 BOU       0.104000
     47 H21          4.5660     2.0430    -0.2960 ha         1 BOU       0.130000
     48 H24          3.7870    -1.2360     1.0430 ha         1 BOU       0.111000
     49 H25          3.4900    -3.0480    -0.5990 ha         1 BOU       0.099000
     50 H26          2.2410    -2.6130    -2.6990 ha         1 BOU       0.100000
     51 H27          1.2800    -0.3810    -3.1070 ha         1 BOU       0.142000
@<TRIPOS>BOND
     1     1     2 1   
     2     1     5 1   
     3     2     3 1   
     4     2     9 1   
     5     2    10 1   
     6     3     4 1   
     7     3    11 1   
     8     3    32 1   
     9     4     5 1   
    10     4    33 1   
    11     5     6 1   
    12     5    34 1   
    13     6     7 1   
    14     6    14 1   
    15     6    35 1   
    16     7     8 2   
    17     7    36 1   
    18     9    37 1   
    19     9    38 1   
    20     9    39 1   
    21    10    40 1   
    22    10    41 1   
    23    10    42 1   
    24    11    12 1   
    25    11    13 1   
    26    14    15 1   
    27    14    43 1   
    28    15    16 2   
    29    15    17 1   
    30    17    18 ar  
    31    17    22 ar  
    32    18    19 ar  
    33    18    44 1   
    34    19    20 ar  
    35    19    45 1   
    36    20    21 ar  
    37    20    46 1   
    38    21    22 ar  
    39    21    47 1   
    40    22    23 1   
    41    23    24 ar  
    42    23    28 ar  
    43    24    25 ar  
    44    24    48 1   
    45    25    26 ar  
    46    25    49 1   
    47    26    27 ar  
    48    26    50 1   
    49    27    28 ar  
    50    27    51 1   
    51    28    29 1   
    52    29    30 1   
    53    29    31 1   
@<TRIPOS>SUBSTRUCTURE
     1 BOU         1 TEMP              0 ****  ****    0 ROOT
