@<TRIPOS>MOLECULE
BOV
   60    62     1     0     0
SMALL
No Charge or Current Charge


@<TRIPOS>ATOM
      1 C10         32.8850    -8.7110    31.9600 cc         1 BOV      -0.168200
      2 C15         33.5510    -8.1990    36.0700 ca         1 BOV      -0.058000
      3 C17         32.3570    -7.8830    33.9910 ca         1 BOV      -0.011200
      4 C24         29.3200   -12.9830    27.5780 c5         1 BOV      -0.180700
      5 C26         30.1300   -15.1990    28.0180 c5         1 BOV       0.101000
      6 C28         28.2240   -13.7920    28.2680 c          1 BOV       0.563000
      7 C01         32.6190    -4.9030    26.8770 c3         1 BOV      -0.091600
      8 C03         30.1770    -5.1940    27.5170 c3         1 BOV      -0.091600
      9 C04         31.6990    -7.2590    27.2280 c3         1 BOV      -0.086400
     10 C05         30.9040    -8.2740    28.1000 c3         1 BOV       0.045700
     11 N06         31.4630    -8.3460    29.4690 ns         1 BOV      -0.474900
     12 O08         29.9200    -7.0510    30.5420 o          1 BOV      -0.624100
     13 C09         31.7150    -7.9550    31.8380 cd         1 BOV      -0.142300
     14 C11         33.2770    -8.6520    33.3370 ca         1 BOV      -0.151800
     15 C12         34.3670    -9.2270    34.0050 ca         1 BOV       0.222000
     16 F13         35.2680    -9.9850    33.3420 f          1 BOV      -0.179000
     17 C14         34.5020    -8.9950    35.3880 ca         1 BOV      -0.182000
     18 C16         32.4630    -7.6340    35.3670 ca         1 BOV      -0.142000
     19 N18         31.3820    -7.4330    33.1170 na         1 BOV      -0.187700
     20 C19         30.9110    -9.6900    27.4540 c          1 BOV       0.580100
     21 O20         31.5820   -10.6160    27.8980 o          1 BOV      -0.568100
     22 N21         30.1220    -9.8140    26.3140 ns         1 BOV      -0.379500
     23 N22         29.7960   -11.1590    25.8520 n          1 BOV      -0.286400
     24 C23         28.7620   -11.9180    26.6050 c3         1 BOV       0.121000
     25 C25         30.2110   -14.0850    26.9400 c5         1 BOV      -0.087400
     26 N27         28.7450   -15.0430    28.4570 ns         1 BOV      -0.513900
     27 C30         30.1070   -11.4960    24.5020 c          1 BOV       0.593100
     28 O31         29.6430   -12.5060    23.9780 o          1 BOV      -0.553100
     29 C32         31.0680   -10.5530    23.7380 c3         1 BOV       0.114600
     30 F33         31.4450   -11.0320    22.5200 f          1 BOV      -0.242000
     31 H1          33.4070    -9.2430    31.1680 ha         1 BOV       0.209000
     32 H2          33.6570    -8.0200    37.1380 ha         1 BOV       0.119000
     33 H3          29.8930   -12.4940    28.3710 hc         1 BOV       0.097700
     34 H4          30.3370   -16.1940    27.6000 h1         1 BOV       0.045700
     35 H5          30.8340   -15.0140    28.8420 h1         1 BOV       0.045700
     36 H6          33.6420    -5.2690    27.0260 hc         1 BOV       0.038533
     37 H7          32.4010    -4.9230    25.8020 hc         1 BOV       0.038533
     38 H8          32.5830    -3.8610    27.2150 hc         1 BOV       0.038533
     39 H9          31.8870    -5.7010    28.7200 hc         1 BOV       0.048700
     40 H10         30.1510    -4.1420    27.8240 hc         1 BOV       0.038533
     41 H11         29.8360    -5.2530    26.4760 hc         1 BOV       0.038533
     42 H12         29.4610    -5.7370    28.1430 hc         1 BOV       0.038533
     43 H13         31.3610    -7.3340    26.1870 hc         1 BOV       0.057700
     44 H14         32.7530    -7.5660    27.2250 hc         1 BOV       0.057700
     45 H15         29.8520    -7.9680    28.1540 h1         1 BOV       0.079700
     46 H16         32.2810    -8.9220    29.6170 hn         1 BOV       0.334500
     47 H17         35.3390    -9.4300    35.9290 ha         1 BOV       0.133000
     48 H18         31.7270    -7.0200    35.8820 ha         1 BOV       0.124000
     49 H19         30.5840    -6.8460    33.3410 hn         1 BOV       0.374000
     50 H20         29.5270    -9.0380    26.0310 hn         1 BOV       0.339500
     51 H21         28.1570   -11.2050    27.1810 h1         1 BOV       0.078200
     52 H22         28.0770   -12.4060    25.8990 h1         1 BOV       0.078200
     53 H23         29.7920   -14.4390    25.9900 hc         1 BOV       0.072200
     54 H24         31.2380   -13.7540    26.7460 hc         1 BOV       0.072200
     55 H25         28.1490   -15.7730    28.8290 hn         1 BOV       0.326500
     56 H26         31.9650   -10.4030    24.3500 h1         1 BOV       0.065700
     57 H27         30.5700    -9.5860    23.5980 h1         1 BOV       0.065700
     58 C07         30.9400    -7.7260    30.5820 c          1 BOV       0.633300
     59 O29         27.0440   -13.5260    28.4270 o          1 BOV      -0.565000
     60 C02         31.6070    -5.7690    27.6620 c3         1 BOV      -0.061700
@<TRIPOS>BOND
     1     1    13 2   
     2     1    14 1   
     3     1    31 1   
     4     2    17 ar  
     5     2    18 ar  
     6     2    32 1   
     7     3    14 ar  
     8     3    18 ar  
     9     3    19 1   
    10     4     6 1   
    11     4    24 1   
    12     4    25 1   
    13     4    33 1   
    14     5    25 1   
    15     5    26 1   
    16     5    34 1   
    17     5    35 1   
    18     6    26 1   
    19     6    59 2   
    20     7    36 1   
    21     7    37 1   
    22     7    38 1   
    23     7    60 1   
    24     8    40 1   
    25     8    41 1   
    26     8    42 1   
    27     8    60 1   
    28     9    10 1   
    29     9    43 1   
    30     9    44 1   
    31     9    60 1   
    32    10    11 1   
    33    10    20 1   
    34    10    45 1   
    35    11    46 1   
    36    11    58 1   
    37    12    58 2   
    38    13    19 1   
    39    13    58 1   
    40    14    15 ar  
    41    15    16 1   
    42    15    17 ar  
    43    17    47 1   
    44    18    48 1   
    45    19    49 1   
    46    20    21 2   
    47    20    22 1   
    48    22    23 1   
    49    22    50 1   
    50    23    24 1   
    51    23    27 1   
    52    24    51 1   
    53    24    52 1   
    54    25    53 1   
    55    25    54 1   
    56    26    55 1   
    57    27    28 2   
    58    27    29 1   
    59    29    30 1   
    60    29    56 1   
    61    29    57 1   
    62    39    60 1   
@<TRIPOS>SUBSTRUCTURE
     1 BOV         1 TEMP              0 ****  ****    0 ROOT
