@<TRIPOS>MOLECULE
BOV
   60    62     1     0     0
SMALL
abcg2


@<TRIPOS>ATOM
      1 C10         32.9830    -8.1630    31.7750 cc         1 BOV      -0.168200
      2 C15         33.0700    -9.7160    35.6690 ca         1 BOV      -0.058000
      3 C17         32.1710    -9.4630    33.4850 ca         1 BOV      -0.011200
      4 C24         29.1250   -12.2500    28.0090 c5         1 BOV      -0.180700
      5 C26         30.0020   -14.0990    29.2890 c5         1 BOV       0.101000
      6 C28         28.0310   -12.8670    28.8770 c          1 BOV       0.563000
      7 C01         32.7970    -5.0140    26.1620 c3         1 BOV      -0.091600
      8 C03         30.5520    -5.1060    27.3040 c3         1 BOV      -0.091600
      9 C04         31.8390    -7.2370    26.7840 c3         1 BOV      -0.086400
     10 C05         31.0510    -8.1210    27.7560 c3         1 BOV       0.045700
     11 N06         31.6700    -8.1380    29.0620 ns         1 BOV      -0.474900
     12 O08         30.0170    -9.3830    29.9800 o          1 BOV      -0.624100
     13 C09         31.8440    -8.8200    31.3600 cd         1 BOV      -0.142300
     14 C11         33.2080    -8.5570    33.1250 ca         1 BOV      -0.151800
     15 C12         34.1630    -8.2600    34.1000 ca         1 BOV       0.222000
     16 F13         35.1610    -7.3940    33.7890 f          1 BOV      -0.179000
     17 C14         34.1120    -8.8190    35.3520 ca         1 BOV      -0.182000
     18 C16         32.0920   -10.0500    34.7520 ca         1 BOV      -0.142000
     19 N18         31.3630    -9.5950    32.3910 na         1 BOV      -0.187700
     20 C19         30.9720    -9.5460    27.1990 c          1 BOV       0.580100
     21 O20         31.8330   -10.3860    27.3890 o          1 BOV      -0.568100
     22 N21         29.8840    -9.7590    26.4040 ns         1 BOV      -0.379500
     23 N22         29.5780   -11.0100    25.9070 n          1 BOV      -0.286400
     24 C23         28.5980   -11.7930    26.6580 c3         1 BOV       0.121000
     25 C25         30.2130   -13.3300    27.9760 c5         1 BOV      -0.087400
     26 N27         28.5770   -13.9050    29.5380 ns         1 BOV      -0.513900
     27 C30         30.2070   -11.4650    24.7900 c          1 BOV       0.593100
     28 O31         30.0180   -12.5780    24.3290 o          1 BOV      -0.553100
     29 C32         31.1760   -10.4770    24.1490 c3         1 BOV       0.114600
     30 F33         31.7010   -11.0450    22.9960 f          1 BOV      -0.242000
     31 H1          33.5770    -7.4770    31.1950 ha         1 BOV       0.209000
     32 H2          33.0430   -10.1490    36.6610 ha         1 BOV       0.119000
     33 H3          29.4770   -11.3760    28.5680 hc         1 BOV       0.097700
     34 H4          30.2410   -15.1580    29.2020 h1         1 BOV       0.045700
     35 H5          30.5950   -13.6750    30.1050 h1         1 BOV       0.045700
     36 H6          33.7910    -5.4610    26.0870 hc         1 BOV       0.038533
     37 H7          32.3370    -5.0470    25.1700 hc         1 BOV       0.038533
     38 H8          32.9150    -3.9660    26.4440 hc         1 BOV       0.038533
     39 H9          32.4280    -5.6890    28.1540 hc         1 BOV       0.048700
     40 H10         30.6520    -4.0440    27.5380 hc         1 BOV       0.038533
     41 H11         30.0010    -5.1940    26.3630 hc         1 BOV       0.038533
     42 H12         29.9510    -5.5620    28.0920 hc         1 BOV       0.038533
     43 H13         31.3590    -7.3110    25.8050 hc         1 BOV       0.057700
     44 H14         32.8460    -7.6520    26.6790 hc         1 BOV       0.057700
     45 H15         30.0330    -7.7410    27.8590 h1         1 BOV       0.079700
     46 H16         32.6160    -7.8040    29.1510 hn         1 BOV       0.334500
     47 H17         34.8690    -8.5670    36.0830 ha         1 BOV       0.133000
     48 H18         31.2950   -10.7380    35.0010 ha         1 BOV       0.124000
     49 H19         30.5360   -10.1670    32.3220 hn         1 BOV       0.374000
     50 H20         29.1560    -9.0610    26.3260 hn         1 BOV       0.339500
     51 H21         27.7120   -11.1700    26.7980 h1         1 BOV       0.078200
     52 H22         28.3290   -12.6430    26.0360 h1         1 BOV       0.078200
     53 H23         30.0380   -13.9960    27.1290 hc         1 BOV       0.072200
     54 H24         31.2140   -12.9160    27.8910 hc         1 BOV       0.072200
     55 H25         28.0720   -14.3930    30.2620 hn         1 BOV       0.326500
     56 H26         32.0020   -10.2560    24.8250 h1         1 BOV       0.065700
     57 H27         30.6660    -9.5520    23.8770 h1         1 BOV       0.065700
     58 C07         31.1050    -8.8070    30.0870 c          1 BOV       0.633300
     59 O29         26.8710   -12.4720    28.9750 o          1 BOV      -0.565000
     60 C02         31.9300    -5.7580    27.1810 c3         1 BOV      -0.061700
@<TRIPOS>BOND
     1     1    13 2   
     2     1    14 1   
     3     1    31 1   
     4     2    17 ar  
     5     2    18 ar  
     6     2    32 1   
     7     3    14 ar  
     8     3    18 ar  
     9     3    19 1   
    10     4     6 1   
    11     4    24 1   
    12     4    25 1   
    13     4    33 1   
    14     5    25 1   
    15     5    26 1   
    16     5    34 1   
    17     5    35 1   
    18     6    26 1   
    19     6    59 2   
    20     7    36 1   
    21     7    37 1   
    22     7    38 1   
    23     7    60 1   
    24     8    40 1   
    25     8    41 1   
    26     8    42 1   
    27     8    60 1   
    28     9    10 1   
    29     9    43 1   
    30     9    44 1   
    31     9    60 1   
    32    10    11 1   
    33    10    20 1   
    34    10    45 1   
    35    11    46 1   
    36    11    58 1   
    37    12    58 2   
    38    13    19 1   
    39    13    58 1   
    40    14    15 ar  
    41    15    16 1   
    42    15    17 ar  
    43    17    47 1   
    44    18    48 1   
    45    19    49 1   
    46    20    21 2   
    47    20    22 1   
    48    22    23 1   
    49    22    50 1   
    50    23    24 1   
    51    23    27 1   
    52    24    51 1   
    53    24    52 1   
    54    25    53 1   
    55    25    54 1   
    56    26    55 1   
    57    27    28 2   
    58    27    29 1   
    59    29    30 1   
    60    29    56 1   
    61    29    57 1   
    62    39    60 1   
@<TRIPOS>SUBSTRUCTURE
     1 BOV         1 TEMP              0 ****  ****    0 ROOT
