@<TRIPOS>MOLECULE
BOW
   32    31     1     0     0
SMALL
No Charge or Current Charge


@<TRIPOS>ATOM
      1 C1           1.3350    -0.5330     0.1260 c3         1 BOW       0.206600
      2 N1           4.3840    -0.3320    -1.5160 n8         1 BOW      -1.060100
      3 O1           3.8600    -1.7470     0.4580 o          1 BOW      -0.555500
      4 S1           3.9390    -0.3510     0.0310 s6         1 BOW       1.402800
      5 C2           0.0650     0.2790    -0.1930 c3         1 BOW      -0.083400
      6 O2           4.7880     0.6370     0.6880 o          1 BOW      -0.555500
      7 C3          -1.2390    -0.4770     0.1480 c3         1 BOW      -0.077400
      8 O3           2.4610     0.2820    -0.2330 os         1 BOW      -0.568700
      9 C4          -2.5110     0.3380    -0.1720 c3         1 BOW      -0.073400
     10 C5          -3.8140    -0.4180     0.1690 c3         1 BOW      -0.075400
     11 C6          -5.0870     0.3970    -0.1510 c3         1 BOW      -0.075400
     12 C7          -6.3900    -0.3590     0.1900 c3         1 BOW      -0.074400
     13 C8          -7.6600     0.4540    -0.1290 c3         1 BOW      -0.089100
     14 H1           1.3500    -0.7800     1.1960 h1         1 BOW       0.053700
     15 H1A          1.3220    -1.4690    -0.4500 h1         1 BOW       0.053700
     16 HN1          5.1330     0.3500    -1.4430 hn         1 BOW       0.485500
     17 HN1A         3.5960     0.2120    -1.8560 hn         1 BOW       0.485500
     18 H2           0.0950     1.2210     0.3690 hc         1 BOW       0.059200
     19 H2A          0.0660     0.5380    -1.2590 hc         1 BOW       0.059200
     20 H3          -1.2650    -1.4210    -0.4130 hc         1 BOW       0.040200
     21 H3A         -1.2360    -0.7380     1.2140 hc         1 BOW       0.040200
     22 H4          -2.4850     1.2810     0.3890 hc         1 BOW       0.040700
     23 H4A         -2.5140     0.5990    -1.2380 hc         1 BOW       0.040700
     24 H5          -3.8400    -1.3610    -0.3920 hc         1 BOW       0.037700
     25 H5A         -3.8110    -0.6790     1.2350 hc         1 BOW       0.037700
     26 H6          -5.0610     1.3400     0.4100 hc         1 BOW       0.038200
     27 H6A         -5.0900     0.6570    -1.2160 hc         1 BOW       0.038200
     28 H7          -6.4200    -1.3020    -0.3700 hc         1 BOW       0.037200
     29 H7A         -6.3920    -0.6200     1.2560 hc         1 BOW       0.037200
     30 H8          -8.5560    -0.1220     0.1290 hc         1 BOW       0.032033
     31 H8A         -7.6760     1.3890     0.4440 hc         1 BOW       0.032033
     32 H8B         -7.7050     0.7000    -1.1970 hc         1 BOW       0.032033
@<TRIPOS>BOND
     1     1     5 1   
     2     1     8 1   
     3     1    14 1   
     4     1    15 1   
     5     2     4 1   
     6     2    16 1   
     7     2    17 1   
     8     3     4 2   
     9     4     6 2   
    10     4     8 1   
    11     5     7 1   
    12     5    18 1   
    13     5    19 1   
    14     7     9 1   
    15     7    20 1   
    16     7    21 1   
    17     9    10 1   
    18     9    22 1   
    19     9    23 1   
    20    10    11 1   
    21    10    24 1   
    22    10    25 1   
    23    11    12 1   
    24    11    26 1   
    25    11    27 1   
    26    12    13 1   
    27    12    28 1   
    28    12    29 1   
    29    13    30 1   
    30    13    31 1   
    31    13    32 1   
@<TRIPOS>SUBSTRUCTURE
     1 BOW         1 TEMP              0 ****  ****    0 ROOT
