@<TRIPOS>MOLECULE
BOW
   32    31     1     0     0
SMALL
bcc


@<TRIPOS>ATOM
      1 C1           1.2840    -0.3160     0.1610 c3         1 BOW       0.183400
      2 N1           3.8720    -0.6860    -1.4900 n8         1 BOW      -0.949700
      3 O1           4.0330    -1.1000     0.9470 o          1 BOW      -0.626300
      4 S1           3.8780    -0.0150     0.0030 s6         1 BOW       1.544400
      5 C2           0.0270     0.5020    -0.0230 c3         1 BOW      -0.083400
      6 O2           4.7250     1.1510     0.1040 o          1 BOW      -0.626300
      7 C3          -1.2160    -0.3700     0.1160 c3         1 BOW      -0.077400
      8 O3           2.4110     0.5890     0.0880 os         1 BOW      -0.545500
      9 C4          -2.5060     0.4190    -0.0680 c3         1 BOW      -0.073400
     10 C5          -3.7570    -0.4360     0.0960 c3         1 BOW      -0.075400
     11 C6          -5.0480     0.3510    -0.0900 c3         1 BOW      -0.075400
     12 C7          -6.3020    -0.4990     0.0760 c3         1 BOW      -0.074400
     13 C8          -7.5850     0.2970    -0.1180 c3         1 BOW      -0.089100
     14 H1           1.2880    -0.8120     1.1340 h1         1 BOW       0.053700
     15 H1A          1.3700    -1.0750    -0.6200 h1         1 BOW       0.053700
     16 HN1          4.5160    -1.4640    -1.5740 hn         1 BOW       0.430300
     17 HN1A         3.9970    -0.0170    -2.2420 hn         1 BOW       0.430300
     18 H2          -0.0030     1.3030     0.7210 hc         1 BOW       0.059200
     19 H2A          0.0380     0.9770    -1.0080 hc         1 BOW       0.059200
     20 H3          -1.1800    -1.1840    -0.6160 hc         1 BOW       0.040200
     21 H3A         -1.2200    -0.8450     1.1030 hc         1 BOW       0.040200
     22 H4          -2.5320     1.2420     0.6540 hc         1 BOW       0.040700
     23 H4A         -2.5100     0.8840    -1.0590 hc         1 BOW       0.040700
     24 H5          -3.7290    -1.2620    -0.6230 hc         1 BOW       0.037700
     25 H5A         -3.7530    -0.8980     1.0890 hc         1 BOW       0.037700
     26 H6          -5.0750     1.1790     0.6270 hc         1 BOW       0.038200
     27 H6A         -5.0520     0.8120    -1.0840 hc         1 BOW       0.038200
     28 H7          -6.2740    -1.3270    -0.6390 hc         1 BOW       0.037200
     29 H7A         -6.3000    -0.9570     1.0700 hc         1 BOW       0.037200
     30 H8          -8.4690    -0.3320    -0.0070 hc         1 BOW       0.032033
     31 H8A         -7.6620     1.1070     0.6090 hc         1 BOW       0.032033
     32 H8B         -7.6230     0.7450    -1.1130 hc         1 BOW       0.032033
@<TRIPOS>BOND
     1     1     5 1   
     2     1     8 1   
     3     1    14 1   
     4     1    15 1   
     5     2     4 1   
     6     2    16 1   
     7     2    17 1   
     8     3     4 2   
     9     4     6 2   
    10     4     8 1   
    11     5     7 1   
    12     5    18 1   
    13     5    19 1   
    14     7     9 1   
    15     7    20 1   
    16     7    21 1   
    17     9    10 1   
    18     9    22 1   
    19     9    23 1   
    20    10    11 1   
    21    10    24 1   
    22    10    25 1   
    23    11    12 1   
    24    11    26 1   
    25    11    27 1   
    26    12    13 1   
    27    12    28 1   
    28    12    29 1   
    29    13    30 1   
    30    13    31 1   
    31    13    32 1   
@<TRIPOS>SUBSTRUCTURE
     1 BOW         1 TEMP              0 ****  ****    0 ROOT
