@<TRIPOS>MOLECULE
BOX
   14    14     1     0     0
SMALL
No Charge or Current Charge


@<TRIPOS>ATOM
      1 C1          -0.0290     0.0010     0.1990 ca         1 BOX      -0.134600
      2 C2          -1.2180    -0.0150    -0.5690 ca         1 BOX      -0.088000
      3 C3          -1.1650    -0.0240    -1.9740 ca         1 BOX      -0.149000
      4 C4           0.0730    -0.0160    -2.6340 ca         1 BOX      -0.144000
      5 C5           1.2600    -0.0000    -1.8880 ca         1 BOX      -0.149000
      6 C6           1.2130     0.0080    -0.4820 ca         1 BOX      -0.088000
      7 C7          -0.0830     0.0100     1.7200 c          1 BOX       0.712600
      8 O1          -1.1770     0.0030     2.2680 o          1 BOX      -0.723500
      9 O2           0.9690     0.0240     2.3440 o          1 BOX      -0.723500
     10 H2          -2.1890    -0.0210    -0.0780 ha         1 BOX       0.124000
     11 H3          -2.0870    -0.0360    -2.5510 ha         1 BOX       0.081000
     12 H4           0.1110    -0.0230    -3.7210 ha         1 BOX       0.078000
     13 H5           2.2210     0.0060    -2.3970 ha         1 BOX       0.081000
     14 H6           2.1460     0.0210     0.0760 ha         1 BOX       0.124000
@<TRIPOS>BOND
     1     1     2 ar  
     2     1     6 ar  
     3     1     7 1   
     4     2     3 ar  
     5     2    10 1   
     6     3     4 ar  
     7     3    11 1   
     8     4     5 ar  
     9     4    12 1   
    10     5     6 ar  
    11     5    13 1   
    12     6    14 1   
    13     7     8 1   
    14     7     9 1   
@<TRIPOS>SUBSTRUCTURE
     1 BOX         1 TEMP              0 ****  ****    0 ROOT
