@<TRIPOS>MOLECULE
BOX
   14    14     1     0     0
SMALL
abcg2


@<TRIPOS>ATOM
      1 C1          -0.0290    -0.0000     0.1820 ca         1 BOX      -0.134600
      2 C2          -1.2000    -0.0150    -0.5730 ca         1 BOX      -0.088000
      3 C3          -1.1530    -0.0220    -1.9600 ca         1 BOX      -0.149000
      4 C4           0.0720    -0.0160    -2.6160 ca         1 BOX      -0.144000
      5 C5           1.2470    -0.0010    -1.8750 ca         1 BOX      -0.149000
      6 C6           1.1940     0.0060    -0.4870 ca         1 BOX      -0.088000
      7 C7          -0.0820     0.0100     1.7050 c          1 BOX       0.712600
      8 O1          -1.2150    -0.0050     2.2250 o          1 BOX      -0.723500
      9 O2           1.0110     0.0330     2.3020 o          1 BOX      -0.723500
     10 H2          -2.1560    -0.0210    -0.0660 ha         1 BOX       0.124000
     11 H3          -2.0720    -0.0330    -2.5330 ha         1 BOX       0.081000
     12 H4           0.1110    -0.0220    -3.6980 ha         1 BOX       0.078000
     13 H5           2.2050     0.0040    -2.3800 ha         1 BOX       0.081000
     14 H6           2.1110     0.0190     0.0870 ha         1 BOX       0.124000
@<TRIPOS>BOND
     1     1     2 ar  
     2     1     6 ar  
     3     1     7 1   
     4     2     3 ar  
     5     2    10 1   
     6     3     4 ar  
     7     3    11 1   
     8     4     5 ar  
     9     4    12 1   
    10     5     6 ar  
    11     5    13 1   
    12     6    14 1   
    13     7     8 1   
    14     7     9 1   
@<TRIPOS>SUBSTRUCTURE
     1 BOX         1 TEMP              0 ****  ****    0 ROOT
