@<TRIPOS>MOLECULE
BOY
   22    22     1     0     0
SMALL
bcc


@<TRIPOS>ATOM
      1 CAA          4.6810    -0.4500     0.5070 c3         1 BOY      -0.011800
      2 CAF          2.5510    -0.9740    -0.7420 ca         1 BOY      -0.133000
      3 CAG          2.5790     0.9390     0.6760 ca         1 BOY      -0.133000
      4 CAH          1.2300    -0.7120    -1.0640 ca         1 BOY      -0.134000
      5 CAI          1.2550     1.2050     0.3470 ca         1 BOY      -0.134000
      6 CAJ          3.2540    -0.1530     0.1410 ca         1 BOY      -0.172300
      7 CAK          0.5530     0.3850    -0.5310 ca         1 BOY       0.045700
      8 CAL         -0.8820     0.6330    -0.8780 c3         1 BOY       0.014200
      9 OAC         -1.2440     1.9940    -0.7330 oh         1 BOY      -0.671800
     10 PAM         -2.0700    -0.3350     0.2490 p5         1 BOY       1.100700
     11 HAA3         4.7430    -1.2130     1.2870 hc         1 BOY       0.005700
     12 HAA2         5.2450    -0.8240    -0.3490 hc         1 BOY       0.005700
     13 HAA1         5.1920     0.4370     0.8810 hc         1 BOY       0.005700
     14 HAF1         3.0500    -1.8270    -1.1880 ha         1 BOY       0.082500
     15 HAG1         3.0990     1.6030     1.3590 ha         1 BOY       0.082500
     16 HAH1         0.7160    -1.3650    -1.7620 ha         1 BOY       0.128000
     17 HAI1         0.7710     2.0750     0.7720 ha         1 BOY       0.128000
     18 HAL1        -1.0440     0.3240    -1.9180 h1         1 BOY       0.035700
     19 HAC1        -1.7150     1.9730     0.1320 ho         1 BOY       0.445000
     20 OAB         -2.3410     0.7830     1.2890 o          1 BOY      -0.896833
     21 OAD         -3.2880    -0.6680    -0.6130 o          1 BOY      -0.896833
     22 OAE         -1.3310    -1.5480     0.8010 o          1 BOY      -0.896833
@<TRIPOS>BOND
     1     1     6 1   
     2     1    11 1   
     3     1    12 1   
     4     1    13 1   
     5     2     4 ar  
     6     2     6 ar  
     7     2    14 1   
     8     3     5 ar  
     9     3     6 ar  
    10     3    15 1   
    11     4     7 ar  
    12     4    16 1   
    13     5     7 ar  
    14     5    17 1   
    15     7     8 1   
    16     8     9 1   
    17     8    10 1   
    18     8    18 1   
    19     9    19 1   
    20    10    20 1   
    21    10    21 1   
    22    10    22 1   
@<TRIPOS>SUBSTRUCTURE
     1 BOY         1 TEMP              0 ****  ****    0 ROOT
