@<TRIPOS>MOLECULE
BOY
   22    22     1     0     0
SMALL
No Charge or Current Charge


@<TRIPOS>ATOM
      1 CAA          4.7260    -0.3870     0.4930 c3         1 BOY      -0.011800
      2 CAF          2.6760    -0.8590    -0.9310 ca         1 BOY      -0.115000
      3 CAG          2.4880     0.7520     0.8760 ca         1 BOY      -0.115000
      4 CAH          1.3240    -0.6500    -1.2580 ca         1 BOY      -0.116000
      5 CAI          1.1360     0.9620     0.5480 ca         1 BOY      -0.116000
      6 CAJ          3.2650    -0.1580     0.1370 ca         1 BOY      -0.172300
      7 CAK          0.5410     0.2610    -0.5210 ca         1 BOY       0.045700
      8 CAL         -0.9250     0.4920    -0.8920 c3         1 BOY      -0.120400
      9 OAC         -1.1230     1.8820    -1.3040 oh         1 BOY      -0.734000
     10 PAM         -2.1240    -0.1550     0.4400 p5         1 BOY       1.258500
     11 HAA3         4.8270    -1.1980     1.2240 hc         1 BOY       0.005700
     12 HAA2         5.3160    -0.6580    -0.3910 hc         1 BOY       0.005700
     13 HAA1         5.1780     0.5130     0.9260 hc         1 BOY       0.005700
     14 HAF1         3.2640    -1.5680    -1.5100 ha         1 BOY       0.064500
     15 HAG1         2.9290     1.3000     1.7050 ha         1 BOY       0.064500
     16 HAH1         0.8850    -1.1970    -2.0890 ha         1 BOY       0.110000
     17 HAI1         0.5500     1.6710     1.1270 ha         1 BOY       0.110000
     18 HAL1        -1.1530    -0.1600    -1.7450 h1         1 BOY       0.035700
     19 HAC1        -1.4610     2.3620    -0.5080 ho         1 BOY       0.484000
     20 OAB         -2.3340     0.9380     1.4370 o          1 BOY      -0.896833
     21 OAD         -3.4250    -0.4970    -0.2070 o          1 BOY      -0.896833
     22 OAE         -1.5560    -1.3640     1.1060 o          1 BOY      -0.896833
@<TRIPOS>BOND
     1     1     6 1   
     2     1    11 1   
     3     1    12 1   
     4     1    13 1   
     5     2     4 ar  
     6     2     6 ar  
     7     2    14 1   
     8     3     5 ar  
     9     3     6 ar  
    10     3    15 1   
    11     4     7 ar  
    12     4    16 1   
    13     5     7 ar  
    14     5    17 1   
    15     7     8 1   
    16     8     9 1   
    17     8    10 1   
    18     8    18 1   
    19     9    19 1   
    20    10    20 1   
    21    10    21 1   
    22    10    22 1   
@<TRIPOS>SUBSTRUCTURE
     1 BOY         1 TEMP              0 ****  ****    0 ROOT
