@<TRIPOS>MOLECULE
BP0
   29    30     1     0     0
SMALL
No Charge or Current Charge


@<TRIPOS>ATOM
      1 S18         -0.0130    -1.7550     0.0070 ss         1 BP0      -0.430000
      2 N26         -4.4080     0.0260    -1.5150 nc         1 BP0      -0.288500
      3 N28         -5.4730     0.9010    -1.3440 nc         1 BP0      -0.410000
      4 C30         -2.7480    -1.2950    -0.2420 c3         1 BP0      -0.099200
      5 C31         -5.6950     1.1120    -0.0640 cd         1 BP0       0.663800
      6 C32         -1.4080    -0.5490    -0.1200 c3         1 BP0       0.062600
      7 C33         -3.9170    -0.3560    -0.3420 cd         1 BP0       0.404700
      8 S35         -4.6840     0.3040     1.0810 ss         1 BP0      -0.346800
      9 H1          -7.3840     2.1490    -0.3970 hn         1 BP0       0.482250
     10 H2          -7.0250     1.8530     1.2660 hn         1 BP0       0.482250
     11 H3          -2.7180    -1.9490    -1.1210 hc         1 BP0       0.081950
     12 H4          -2.8770    -1.9480     0.6290 hc         1 BP0       0.081950
     13 H5          -1.4160     0.0890     0.7750 h1         1 BP0       0.065700
     14 C1           1.4100    -0.5830     0.1400 c3         1 BP0       0.062600
     15 C2           2.7320    -1.3630     0.2580 c3         1 BP0      -0.099200
     16 C3           3.9270    -0.4600     0.3670 cc         1 BP0       0.404700
     17 N1           4.4730    -0.0980     1.5210 nd         1 BP0      -0.288500
     18 N2           5.5550     0.7450     1.3280 nd         1 BP0      -0.410000
     19 C6           5.7560     0.9660     0.0490 cc         1 BP0       0.663800
     20 S1           4.6790     0.2030    -1.0550 ss         1 BP0      -0.346800
     21 N3           6.7510     1.7600    -0.3730 nv         1 BP0      -1.031400
     22 H6          -1.2550     0.0900    -1.0010 h1         1 BP0       0.065700
     23 H7           1.4340     0.0590    -0.7510 h1         1 BP0       0.065700
     24 H8           1.2730     0.0540     1.0240 h1         1 BP0       0.065700
     25 H9           2.6870    -2.0200     1.1340 hc         1 BP0       0.081950
     26 H10          2.8470    -2.0130    -0.6170 hc         1 BP0       0.081950
     27 H11          7.1580     2.3730     0.3250 hn         1 BP0       0.482250
     28 H12          6.6810     2.1290    -1.3150 hn         1 BP0       0.482250
     29 N27         -6.6920     1.9300     0.3110 nv         1 BP0      -1.031400
@<TRIPOS>BOND
     1     1     6 1   
     2     1    14 1   
     3     2     3 1   
     4     2     7 2   
     5     3     5 2   
     6     4     6 1   
     7     4     7 1   
     8     4    11 1   
     9     4    12 1   
    10     5     8 1   
    11     5    29 1   
    12     6    13 1   
    13     6    22 1   
    14     7     8 1   
    15     9    29 1   
    16    10    29 1   
    17    14    15 1   
    18    14    23 1   
    19    14    24 1   
    20    15    16 1   
    21    15    25 1   
    22    15    26 1   
    23    16    17 2   
    24    16    20 1   
    25    17    18 1   
    26    18    19 2   
    27    19    20 1   
    28    19    21 1   
    29    21    27 1   
    30    21    28 1   
@<TRIPOS>SUBSTRUCTURE
     1 BP0         1 TEMP              0 ****  ****    0 ROOT
