@<TRIPOS>MOLECULE
BP0
   29    30     1     0     0
SMALL
abcg2


@<TRIPOS>ATOM
      1 S18         -0.0150    -1.7850     0.0870 ss         1 BP0      -0.430000
      2 N26         -4.5260    -0.3020    -1.4150 nc         1 BP0      -0.288500
      3 N28         -5.5280     0.6010    -1.3380 nc         1 BP0      -0.410000
      4 C30         -2.6980    -1.3700    -0.1630 c3         1 BP0      -0.099200
      5 C31         -5.6140     1.1570    -0.1670 cd         1 BP0       0.663800
      6 C32         -1.3860    -0.6030    -0.0150 c3         1 BP0       0.062600
      7 C33         -3.8570    -0.4510    -0.3280 cd         1 BP0       0.404700
      8 S35         -4.4260     0.5770     0.9600 ss         1 BP0      -0.346800
      9 H1          -7.2420     2.2730    -0.5020 hn         1 BP0       0.482250
     10 H2          -6.7600     2.2400     1.1150 hn         1 BP0       0.482250
     11 H3          -2.6610    -2.0090    -1.0470 hc         1 BP0       0.081950
     12 H4          -2.8520    -2.0180     0.7030 hc         1 BP0       0.081950
     13 H5          -1.3950     0.0170     0.8840 h1         1 BP0       0.065700
     14 C1           1.3780    -0.6250     0.1510 c3         1 BP0       0.062600
     15 C2           2.6820    -1.4180     0.2100 c3         1 BP0      -0.099200
     16 C3           3.8710    -0.5270     0.3060 cc         1 BP0       0.404700
     17 N1           4.6760    -0.4800     1.3050 nd         1 BP0      -0.288500
     18 N2           5.6810     0.4150     1.1760 nd         1 BP0      -0.410000
     19 C6           5.6380     1.0600     0.0480 cc         1 BP0       0.663800
     20 S1           4.3040     0.5890    -0.9630 ss         1 BP0      -0.346800
     21 N3           6.5550     1.9620    -0.3540 nv         1 BP0      -1.031400
     22 H6          -1.2360     0.0520    -0.8760 h1         1 BP0       0.065700
     23 H7           1.3490     0.0110    -0.7370 h1         1 BP0       0.065700
     24 H8           1.2820     0.0140     1.0300 h1         1 BP0       0.065700
     25 H9           2.6900    -2.0660     1.0880 hc         1 BP0       0.081950
     26 H10          2.7660    -2.0590    -0.6710 hc         1 BP0       0.081950
     27 H11          7.1670     2.3190     0.3630 hn         1 BP0       0.482250
     28 H12          6.2940     2.6440    -1.0460 hn         1 BP0       0.482250
     29 N27         -6.4860     2.1380     0.1520 nv         1 BP0      -1.031400
@<TRIPOS>BOND
     1     1     6 1   
     2     1    14 1   
     3     2     3 1   
     4     2     7 2   
     5     3     5 2   
     6     4     6 1   
     7     4     7 1   
     8     4    11 1   
     9     4    12 1   
    10     5     8 1   
    11     5    29 1   
    12     6    13 1   
    13     6    22 1   
    14     7     8 1   
    15     9    29 1   
    16    10    29 1   
    17    14    15 1   
    18    14    23 1   
    19    14    24 1   
    20    15    16 1   
    21    15    25 1   
    22    15    26 1   
    23    16    17 2   
    24    16    20 1   
    25    17    18 1   
    26    18    19 2   
    27    19    20 1   
    28    19    21 1   
    29    21    27 1   
    30    21    28 1   
@<TRIPOS>SUBSTRUCTURE
     1 BP0         1 TEMP              0 ****  ****    0 ROOT
