@<TRIPOS>MOLECULE
BP1
   13    14     1     0     0
SMALL
abcg2


@<TRIPOS>ATOM
      1 N9          -0.7490     0.0010     3.0350 nc         1 BP1      -0.629700
      2 C4           0.2180     0.0050     2.0790 ca         1 BP1       0.232000
      3 N3           1.5330     0.0200     2.2640 nb         1 BP1      -0.099000
      4 C2           2.2420     0.0190     1.1540 ca         1 BP1       0.110900
      5 N1           1.7780     0.0040    -0.1020 nb         1 BP1      -0.148000
      6 C6           0.4820    -0.0110    -0.2840 ca         1 BP1       0.193200
      7 BR          -0.1890    -0.0320    -2.0380 br         1 BP1      -0.139200
      8 C5          -0.3690    -0.0120     0.8000 ca         1 BP1      -0.186200
      9 N7          -1.7100    -0.0250     1.0240 na         1 BP1      -0.283600
     10 C8          -1.8720    -0.0160     2.3650 cd         1 BP1       0.441700
     11 H2           3.3200     0.0320     1.2560 h5         1 BP1       0.061100
     12 HN7         -2.4520    -0.0390     0.3390 hn         1 BP1       0.375000
     13 H8          -2.8570    -0.0240     2.8050 h5         1 BP1       0.072800
@<TRIPOS>BOND
     1     1     2 1   
     2     1    10 2   
     3     2     3 ar  
     4     2     8 ar  
     5     3     4 ar  
     6     4     5 ar  
     7     4    11 1   
     8     5     6 ar  
     9     6     7 1   
    10     6     8 ar  
    11     8     9 1   
    12     9    10 1   
    13     9    12 1   
    14    10    13 1   
@<TRIPOS>SUBSTRUCTURE
     1 BP1         1 TEMP              0 ****  ****    0 ROOT
