@<TRIPOS>MOLECULE
BP1
   13    14     1     0     0
SMALL
No Charge or Current Charge


@<TRIPOS>ATOM
      1 N9          -0.7730     0.0010     3.0910 nc         1 BP1      -0.629700
      2 C4           0.2220     0.0050     2.1250 ca         1 BP1       0.232000
      3 N3           1.5640     0.0210     2.2710 nb         1 BP1      -0.099000
      4 C2           2.2910     0.0200     1.1260 ca         1 BP1       0.110900
      5 N1           1.8110     0.0040    -0.1420 nb         1 BP1      -0.148000
      6 C6           0.4670    -0.0110    -0.2690 ca         1 BP1       0.193200
      7 Br          -0.2740    -0.0330    -2.0330 br         1 BP1      -0.139200
      8 C5          -0.3430    -0.0110     0.8770 ca         1 BP1      -0.186200
      9 N7          -1.7080    -0.0250     0.9900 na         1 BP1      -0.283600
     10 C8          -1.9180    -0.0170     2.3730 cd         1 BP1       0.441700
     11 H2           3.3730     0.0320     1.2380 h5         1 BP1       0.061100
     12 HN7         -2.4160    -0.0390     0.2650 hn         1 BP1       0.375000
     13 H8          -2.9210    -0.0250     2.7840 h5         1 BP1       0.072800
@<TRIPOS>BOND
     1     1     2 1   
     2     1    10 2   
     3     2     3 ar  
     4     2     8 ar  
     5     3     4 ar  
     6     4     5 ar  
     7     4    11 1   
     8     5     6 ar  
     9     6     7 1   
    10     6     8 ar  
    11     8     9 1   
    12     9    10 1   
    13     9    12 1   
    14    10    13 1   
@<TRIPOS>SUBSTRUCTURE
     1 BP1         1 TEMP              0 ****  ****    0 ROOT
