@<TRIPOS>MOLECULE
BP3
   24    25     1     0     0
SMALL
No Charge or Current Charge


@<TRIPOS>ATOM
      1 CA1         -0.5430    -0.1780     0.3860 cp         1 BP3      -0.053000
      2 CA2         -0.0390     0.8130     1.2710 ca         1 BP3       0.139100
      3 OA2          0.5150     1.9720     0.8030 oh         1 BP3      -0.526100
      4 CA3         -0.0800     0.6210     2.6690 ca         1 BP3       0.040100
      5 OA3          0.4160     1.5860     3.5070 oh         1 BP3      -0.559100
      6 CA4         -0.6270    -0.5570     3.2030 ca         1 BP3      -0.153000
      7 CA5         -1.1340    -1.5440     2.3420 ca         1 BP3      -0.114000
      8 CA6         -1.0940    -1.3550     0.9510 ca         1 BP3      -0.082000
      9 CB1         -0.5220     0.0070    -1.0980 cp         1 BP3      -0.014000
     10 CB2          0.1730    -0.8870    -1.9580 ca         1 BP3       0.135000
     11 CB3          0.1630    -0.6930    -3.3500 ca         1 BP3      -0.108000
     12 CB4         -0.5350     0.3890    -3.9110 ca         1 BP3      -0.100000
     13 CB5         -1.2240     1.2840    -3.0770 ca         1 BP3      -0.112000
     14 CB6         -1.2160     1.0930    -1.6850 ca         1 BP3      -0.080000
     15 Cl1          1.0980    -2.2490    -1.3220 cl         1 BP3      -0.204000
     16 HA2          0.7890     2.4730     1.6040 ho         1 BP3       0.481000
     17 HA3          0.3070     1.2870     4.4370 ho         1 BP3       0.475000
     18 HA4         -0.6640    -0.7130     4.2790 ha         1 BP3       0.113000
     19 HA5         -1.5610    -2.4570     2.7530 ha         1 BP3       0.118000
     20 HA6         -1.4970    -2.1260     0.2970 ha         1 BP3       0.124000
     21 HB3          0.7020    -1.3820    -3.9960 ha         1 BP3       0.128000
     22 HB4         -0.5400     0.5360    -4.9900 ha         1 BP3       0.116000
     23 HB5         -1.7650     2.1240    -3.5080 ha         1 BP3       0.117000
     24 HB6         -1.7560     1.7900    -1.0480 ha         1 BP3       0.120000
@<TRIPOS>BOND
     1     1     2 ar  
     2     1     8 ar  
     3     1     9 1   
     4     2     3 1   
     5     2     4 ar  
     6     3    16 1   
     7     4     5 1   
     8     4     6 ar  
     9     5    17 1   
    10     6     7 ar  
    11     6    18 1   
    12     7     8 ar  
    13     7    19 1   
    14     8    20 1   
    15     9    10 ar  
    16     9    14 ar  
    17    10    11 ar  
    18    10    15 1   
    19    11    12 ar  
    20    11    21 1   
    21    12    13 ar  
    22    12    22 1   
    23    13    14 ar  
    24    13    23 1   
    25    14    24 1   
@<TRIPOS>SUBSTRUCTURE
     1 BP3         1 TEMP              0 ****  ****    0 ROOT
