@<TRIPOS>MOLECULE
BP3
   24    25     1     0     0
SMALL
abcg2


@<TRIPOS>ATOM
      1 CA1         -0.5830    -0.1950     0.4050 cp         1 BP3      -0.053000
      2 CA2          0.0240     0.7280     1.2480 ca         1 BP3       0.139100
      3 OA2          0.6620     1.7850     0.7060 oh         1 BP3      -0.526100
      4 CA3         -0.0330     0.5440     2.6370 ca         1 BP3       0.040100
      5 OA3          0.5870     1.4890     3.3810 oh         1 BP3      -0.559100
      6 CA4         -0.6900    -0.5540     3.1650 ca         1 BP3      -0.153000
      7 CA5         -1.2930    -1.4780     2.3190 ca         1 BP3      -0.114000
      8 CA6         -1.2370    -1.3010     0.9490 ca         1 BP3      -0.082000
      9 CB1         -0.5400     0.0110    -1.0600 cp         1 BP3      -0.014000
     10 CB2          0.2760    -0.7500    -1.8920 ca         1 BP3       0.135000
     11 CB3          0.2950    -0.5670    -3.2680 ca         1 BP3      -0.108000
     12 CB4         -0.5150     0.4040    -3.8350 ca         1 BP3      -0.100000
     13 CB5         -1.3350     1.1830    -3.0280 ca         1 BP3      -0.112000
     14 CB6         -1.3410     0.9840    -1.6570 ca         1 BP3      -0.080000
     15 CL1          1.3190    -1.9560    -1.2080 cl         1 BP3      -0.204000
     16 HA2          1.0130     2.3560     1.3990 ho         1 BP3       0.481000
     17 HA3          0.5110     1.2910     4.3200 ho         1 BP3       0.475000
     18 HA4         -0.7300    -0.6910     4.2400 ha         1 BP3       0.113000
     19 HA5         -1.8040    -2.3340     2.7390 ha         1 BP3       0.118000
     20 HA6         -1.7060    -2.0170     0.2870 ha         1 BP3       0.124000
     21 HB3          0.9400    -1.1740    -3.8880 ha         1 BP3       0.128000
     22 HB4         -0.5020     0.5500    -4.9070 ha         1 BP3       0.116000
     23 HB5         -1.9680     1.9420    -3.4670 ha         1 BP3       0.117000
     24 HB6         -1.9830     1.5850    -1.0260 ha         1 BP3       0.120000
@<TRIPOS>BOND
     1     1     2 ar  
     2     1     8 ar  
     3     1     9 1   
     4     2     3 1   
     5     2     4 ar  
     6     3    16 1   
     7     4     5 1   
     8     4     6 ar  
     9     5    17 1   
    10     6     7 ar  
    11     6    18 1   
    12     7     8 ar  
    13     7    19 1   
    14     8    20 1   
    15     9    10 ar  
    16     9    14 ar  
    17    10    11 ar  
    18    10    15 1   
    19    11    12 ar  
    20    11    21 1   
    21    12    13 ar  
    22    12    22 1   
    23    13    14 ar  
    24    13    23 1   
    25    14    24 1   
@<TRIPOS>SUBSTRUCTURE
     1 BP3         1 TEMP              0 ****  ****    0 ROOT
