@<TRIPOS>MOLECULE
BP4
   27    28     1     0     0
SMALL
No Charge or Current Charge


@<TRIPOS>ATOM
      1 CA          -3.4820    -0.0040    -0.9650 c3         1 BP4      -0.196100
      2 C           -4.2170    -0.2900     0.3510 c          1 BP4       0.725000
      3 O           -4.4030    -1.4570     0.6640 o          1 BP4      -0.724000
      4 C2           0.8380     0.0190    -0.2530 cp         1 BP4      -0.096000
      5 C3           0.1580    -1.1750    -0.6040 ca         1 BP4      -0.096500
      6 C4          -1.2290    -1.1820    -0.8320 ca         1 BP4      -0.118000
      7 C5          -1.9780     0.0030    -0.7140 ca         1 BP4       0.027700
      8 C6          -1.3180     1.1960    -0.3650 ca         1 BP4      -0.118000
      9 C1           0.0690     1.2040    -0.1390 ca         1 BP4      -0.096500
     10 C11          5.1230     0.0420     0.4480 ca         1 BP4      -0.133000
     11 C18          3.1120     1.1480    -0.3620 ca         1 BP4      -0.111500
     12 C20          2.3170     0.0270    -0.0110 cp         1 BP4       0.009000
     13 C23          4.4990     1.1560    -0.1360 ca         1 BP4      -0.116500
     14 C25          2.9710    -1.0870     0.5770 ca         1 BP4      -0.111500
     15 C26          4.3580    -1.0790     0.8050 ca         1 BP4      -0.116500
     16 HA1         -3.6840    -0.8000    -1.6910 hc         1 BP4       0.033200
     17 HA2         -3.7510     0.9910    -1.3390 hc         1 BP4       0.033200
     18 O2          -4.4830     0.6550     1.0790 o          1 BP4      -0.724000
     19 H6          -1.8820     2.1200    -0.2650 ha         1 BP4       0.109000
     20 H1           0.5470     2.1380     0.1430 ha         1 BP4       0.092000
     21 H11          6.1960     0.0480     0.6240 ha         1 BP4       0.098000
     22 H18          2.6510     2.0150    -0.8280 ha         1 BP4       0.115500
     23 H23          5.0910     2.0250    -0.4160 ha         1 BP4       0.099500
     24 H25          2.3950    -1.9600     0.8730 ha         1 BP4       0.115500
     25 H26          4.8380    -1.9420     1.2610 ha         1 BP4       0.099500
     26 H3           0.7110    -2.1040    -0.7160 ha         1 BP4       0.092000
     27 H4          -1.7220    -2.1120    -1.1020 ha         1 BP4       0.109000
@<TRIPOS>BOND
     1     1     2 1   
     2     1     7 1   
     3     1    16 1   
     4     1    17 1   
     5     2     3 1   
     6     2    18 1   
     7     4     5 ar  
     8     4     9 ar  
     9     4    12 1   
    10     5     6 ar  
    11     5    26 1   
    12     6     7 ar  
    13     6    27 1   
    14     7     8 ar  
    15     8     9 ar  
    16     8    19 1   
    17     9    20 1   
    18    10    13 ar  
    19    10    15 ar  
    20    10    21 1   
    21    11    12 ar  
    22    11    13 ar  
    23    11    22 1   
    24    12    14 ar  
    25    13    23 1   
    26    14    15 ar  
    27    14    24 1   
    28    15    25 1   
@<TRIPOS>SUBSTRUCTURE
     1 BP4         1 TEMP              0 ****  ****    0 ROOT
