@<TRIPOS>MOLECULE
BP4
   27    28     1     0     0
SMALL
abcg2


@<TRIPOS>ATOM
      1 CA          -3.4130     0.1090    -0.8840 c3         1 BP4      -0.196100
      2 C           -4.2520    -0.3340     0.3420 c          1 BP4       0.725000
      3 O           -3.6450    -0.7830     1.3290 o          1 BP4      -0.724000
      4 C2           0.8590     0.0310    -0.2270 cp         1 BP4      -0.096000
      5 C3           0.1710    -1.1150    -0.6310 ca         1 BP4      -0.096500
      6 C4          -1.1980    -1.0880    -0.8440 ca         1 BP4      -0.118000
      7 C5          -1.9360     0.0810    -0.6670 ca         1 BP4       0.027700
      8 C6          -1.2470     1.2220    -0.2640 ca         1 BP4      -0.118000
      9 C1           0.1230     1.2020    -0.0470 ca         1 BP4      -0.096500
     10 C11          5.0960    -0.0530     0.3920 ca         1 BP4      -0.133000
     11 C18          3.1170     1.0980    -0.3540 ca         1 BP4      -0.111500
     12 C20          2.3200     0.0040    -0.0100 cp         1 BP4       0.009000
     13 C23          4.4890     1.0710    -0.1550 ca         1 BP4      -0.116500
     14 C25          2.9420    -1.1190     0.5410 ca         1 BP4      -0.111500
     15 C26          4.3150    -1.1470     0.7390 ca         1 BP4      -0.116500
     16 HA1         -3.6830    -0.5430    -1.7220 hc         1 BP4       0.033200
     17 HA2         -3.7310     1.1140    -1.1760 hc         1 BP4       0.033200
     18 O2          -5.4860    -0.2060     0.2110 o          1 BP4      -0.724000
     19 H6          -1.7910     2.1470    -0.1130 ha         1 BP4       0.109000
     20 H1           0.6180     2.1060     0.2830 ha         1 BP4       0.092000
     21 H11          6.1670    -0.0750     0.5460 ha         1 BP4       0.098000
     22 H18          2.6650     1.9740    -0.8020 ha         1 BP4       0.115500
     23 H23          5.0880     1.9280    -0.4370 ha         1 BP4       0.099500
     24 H25          2.3460    -1.9740     0.8370 ha         1 BP4       0.115500
     25 H26          4.7740    -2.0260     1.1730 ha         1 BP4       0.099500
     26 H3           0.7140    -2.0370    -0.8030 ha         1 BP4       0.092000
     27 H4          -1.6990    -1.9920    -1.1710 ha         1 BP4       0.109000
@<TRIPOS>BOND
     1     1     2 1   
     2     1     7 1   
     3     1    16 1   
     4     1    17 1   
     5     2     3 1   
     6     2    18 1   
     7     4     5 ar  
     8     4     9 ar  
     9     4    12 1   
    10     5     6 ar  
    11     5    26 1   
    12     6     7 ar  
    13     6    27 1   
    14     7     8 ar  
    15     8     9 ar  
    16     8    19 1   
    17     9    20 1   
    18    10    13 ar  
    19    10    15 ar  
    20    10    21 1   
    21    11    12 ar  
    22    11    13 ar  
    23    11    22 1   
    24    12    14 ar  
    25    13    23 1   
    26    14    15 ar  
    27    14    24 1   
    28    15    25 1   
@<TRIPOS>SUBSTRUCTURE
     1 BP4         1 TEMP              0 ****  ****    0 ROOT
