@<TRIPOS>MOLECULE
BP5
   30    31     1     0     0
SMALL
No Charge or Current Charge


@<TRIPOS>ATOM
      1 C9          -1.1220     0.2000     0.6560 ca         1 BP5      -0.061300
      2 C8          -0.3420     1.3020     1.0470 ca         1 BP5      -0.074000
      3 C7           1.0480     1.2500     0.8500 ca         1 BP5      -0.122000
      4 C6           1.6510     0.0990     0.2700 cp         1 BP5       0.243000
      5 C5           5.9120    -0.0830    -0.3440 ca         1 BP5      -0.181000
      6 C4           5.2630     1.0240     0.2230 ca         1 BP5       0.333900
      7 C3           3.1570     0.0090     0.0420 cp         1 BP5       0.320000
      8 C2           3.7600    -1.1420    -0.5380 ca         1 BP5      -0.130000
      9 C1           5.1500    -1.1930    -0.7350 ca         1 BP5      -0.087000
     10 C12         -2.6370     0.1980     0.8670 c3         1 BP5      -0.021100
     11 C11         -0.4610    -0.9100     0.0910 ca         1 BP5       0.318900
     12 N1           3.9250     1.0720     0.4120 nb         1 BP5      -0.679000
     13 N2           0.8810    -0.9640    -0.0930 nb         1 BP5      -0.686000
     14 C13         -3.4670    -0.1810    -0.3900 c3         1 BP5       0.017500
     15 C14         -5.0050    -0.2570    -0.0200 c          1 BP5       0.693000
     16 O1          -5.5270    -1.3600     0.0610 o          1 BP5      -0.729500
     17 O2          -5.6380     0.7890     0.0610 o          1 BP5      -0.729500
     18 N           -3.1050     0.7010    -1.5620 n8         1 BP5      -1.004200
     19 H8          -0.8000     2.1820     1.4930 ha         1 BP5       0.127000
     20 H7           1.6570     2.0990     1.1460 ha         1 BP5       0.130000
     21 H2           3.1480    -1.9900    -0.8330 ha         1 BP5       0.148000
     22 H1           5.6210    -2.0690    -1.1780 ha         1 BP5       0.109000
     23 H121        -2.8820    -0.5090     1.6690 hc         1 BP5       0.054700
     24 H122        -2.9710     1.1800     1.2240 hc         1 BP5       0.054700
     25 H11         -1.0180    -1.7960    -0.2120 h4         1 BP5       0.021100
     26 H13         -3.1790    -1.2020    -0.6740 h1         1 BP5       0.042700
     27 HN1         -3.6320     0.3920    -2.3890 hn         1 BP5       0.385500
     28 HN2         -3.4840     1.6400    -1.3870 hn         1 BP5       0.385500
     29 H5           6.9910    -0.0750    -0.4750 ha         1 BP5       0.111000
     30 H4           5.8300     1.9010     0.5360 h4         1 BP5       0.008100
@<TRIPOS>BOND
     1     1     2 ar  
     2     1    10 1   
     3     1    11 ar  
     4     2     3 ar  
     5     2    19 1   
     6     3     4 ar  
     7     3    20 1   
     8     4     7 1   
     9     4    13 ar  
    10     5     6 ar  
    11     5     9 ar  
    12     5    29 1   
    13     6    12 ar  
    14     6    30 1   
    15     7     8 ar  
    16     7    12 ar  
    17     8     9 ar  
    18     8    21 1   
    19     9    22 1   
    20    10    14 1   
    21    10    23 1   
    22    10    24 1   
    23    11    13 ar  
    24    11    25 1   
    25    14    15 1   
    26    14    18 1   
    27    14    26 1   
    28    15    16 1   
    29    15    17 1   
    30    18    27 1   
    31    18    28 1   
@<TRIPOS>SUBSTRUCTURE
     1 BP5         1 TEMP              0 ****  ****    0 ROOT
