@<TRIPOS>MOLECULE
BP5
   30    31     1     0     0
SMALL
abcg2


@<TRIPOS>ATOM
      1 C9          -1.1010    -0.0380     0.6480 ca         1 BP5      -0.061300
      2 C8          -0.4130     1.1700     0.6890 ca         1 BP5      -0.074000
      3 C7           0.9560     1.1920     0.4860 ca         1 BP5      -0.122000
      4 C6           1.6190    -0.0080     0.2380 cp         1 BP5       0.243000
      5 C5           5.7860    -0.0290    -0.3820 ca         1 BP5      -0.181000
      6 C4           5.0430     1.1200    -0.1570 ca         1 BP5       0.333900
      7 C3           3.0850    -0.0490     0.0150 cp         1 BP5       0.320000
      8 C2           3.7450    -1.2580    -0.2040 ca         1 BP5      -0.130000
      9 C1           5.1140    -1.2430    -0.4060 ca         1 BP5      -0.087000
     10 C12         -2.5820    -0.1390     0.8220 c3         1 BP5      -0.021100
     11 C11         -0.3380    -1.1750     0.3960 ca         1 BP5       0.318900
     12 N1           3.7320     1.1150     0.0360 nb         1 BP5      -0.679000
     13 N2           0.9710    -1.1690     0.1970 nb         1 BP5      -0.686000
     14 C13         -3.3490     0.1080    -0.4900 c3         1 BP5       0.017500
     15 C14         -4.8380    -0.2670    -0.2730 c          1 BP5       0.693000
     16 O1          -5.0740    -1.4820    -0.1100 o          1 BP5      -0.729500
     17 O2          -5.6700     0.6610    -0.2580 o          1 BP5      -0.729500
     18 N           -3.0990     1.4580    -0.9580 n8         1 BP5      -1.004200
     19 H8          -0.9450     2.0910     0.8900 ha         1 BP5       0.127000
     20 H7           1.5080     2.1210     0.5180 ha         1 BP5       0.130000
     21 H2           3.1890    -2.1840    -0.2140 ha         1 BP5       0.148000
     22 H1           5.6500    -2.1670    -0.5790 ha         1 BP5       0.109000
     23 H121        -2.8370    -1.1320     1.1940 hc         1 BP5       0.054700
     24 H122        -2.9220     0.5810     1.5730 hc         1 BP5       0.054700
     25 H11         -0.8230    -2.1460     0.3570 h4         1 BP5       0.021100
     26 H13         -2.9420    -0.5840    -1.2360 h1         1 BP5       0.042700
     27 HN1         -3.4550     1.5500    -1.9010 hn         1 BP5       0.385500
     28 HN2         -3.6680     2.0910    -0.4070 hn         1 BP5       0.385500
     29 H5           6.8550     0.0300    -0.5320 ha         1 BP5       0.111000
     30 H4           5.5290     2.0890    -0.1330 h4         1 BP5       0.008100
@<TRIPOS>BOND
     1     1     2 ar  
     2     1    10 1   
     3     1    11 ar  
     4     2     3 ar  
     5     2    19 1   
     6     3     4 ar  
     7     3    20 1   
     8     4     7 1   
     9     4    13 ar  
    10     5     6 ar  
    11     5     9 ar  
    12     5    29 1   
    13     6    12 ar  
    14     6    30 1   
    15     7     8 ar  
    16     7    12 ar  
    17     8     9 ar  
    18     8    21 1   
    19     9    22 1   
    20    10    14 1   
    21    10    23 1   
    22    10    24 1   
    23    11    13 ar  
    24    11    25 1   
    25    14    15 1   
    26    14    18 1   
    27    14    26 1   
    28    15    16 1   
    29    15    17 1   
    30    18    27 1   
    31    18    28 1   
@<TRIPOS>SUBSTRUCTURE
     1 BP5         1 TEMP              0 ****  ****    0 ROOT
