@<TRIPOS>MOLECULE
BP6
   24    25     1     0     0
SMALL
abcg2


@<TRIPOS>ATOM
      1 CA1          0.0610    -0.4480     0.5930 cp         1 BP6      -0.032000
      2 CA2         -0.0040     0.5890     1.5160 ca         1 BP6       0.032100
      3 OA2         -0.0500     1.9000     1.1310 oh         1 BP6      -0.565100
      4 CA3          0.0310     0.3150     2.8860 ca         1 BP6       0.128100
      5 OA3         -0.0200     1.3050     3.7950 oh         1 BP6      -0.529100
      6 CA4          0.1230    -1.0020     3.3210 ca         1 BP6      -0.130000
      7 CA5          0.1740    -2.0340     2.3950 ca         1 BP6      -0.083000
      8 CA6          0.1470    -1.7640     1.0360 ca         1 BP6      -0.109000
      9 CB1          0.0450    -0.1470    -0.8550 cp         1 BP6      -0.018000
     10 CB2         -1.1310     0.1940    -1.5200 ca         1 BP6       0.134000
     11 CB3         -1.1720     0.4460    -2.8820 ca         1 BP6      -0.103000
     12 CB4          0.0020     0.3640    -3.6130 ca         1 BP6      -0.092000
     13 CB5          1.1970     0.0420    -2.9910 ca         1 BP6      -0.103000
     14 CB6          1.2040    -0.2040    -1.6270 ca         1 BP6       0.134000
     15 CL1         -2.6020     0.3070    -0.6120 cl         1 BP6      -0.188500
     16 CL2          2.7090    -0.5860    -0.8660 cl         1 BP6      -0.188500
     17 HA2         -0.9220     2.1210     0.7820 ho         1 BP6       0.465000
     18 HA3         -0.0620     2.1560     3.3390 ho         1 BP6       0.479000
     19 HA4          0.1480    -1.2100     4.3830 ha         1 BP6       0.131000
     20 HA5          0.2410    -3.0570     2.7410 ha         1 BP6       0.120000
     21 HA6          0.1900    -2.5690     0.3150 ha         1 BP6       0.123000
     22 HB3         -2.1050     0.7030    -3.3630 ha         1 BP6       0.134500
     23 HB4         -0.0140     0.5550    -4.6770 ha         1 BP6       0.124000
     24 HB5          2.1140    -0.0110    -3.5610 ha         1 BP6       0.134500
@<TRIPOS>BOND
     1     1     2 ar  
     2     1     8 ar  
     3     1     9 1   
     4     2     3 1   
     5     2     4 ar  
     6     3    17 1   
     7     4     5 1   
     8     4     6 ar  
     9     5    18 1   
    10     6     7 ar  
    11     6    19 1   
    12     7     8 ar  
    13     7    20 1   
    14     8    21 1   
    15     9    10 ar  
    16     9    14 ar  
    17    10    11 ar  
    18    10    15 1   
    19    11    12 ar  
    20    11    22 1   
    21    12    13 ar  
    22    12    23 1   
    23    13    14 ar  
    24    13    24 1   
    25    14    16 1   
@<TRIPOS>SUBSTRUCTURE
     1 BP6         1 TEMP              0 ****  ****    0 ROOT
