@<TRIPOS>MOLECULE
BP6
   24    25     1     0     0
SMALL
No Charge or Current Charge


@<TRIPOS>ATOM
      1 CA1          0.0370    -0.4180     0.6180 cp         1 BP6      -0.032000
      2 CA2         -0.0180     0.6200     1.5880 ca         1 BP6       0.032100
      3 OA2         -0.0940     1.9400     1.2140 oh         1 BP6      -0.565100
      4 CA3          0.0140     0.3050     2.9620 ca         1 BP6       0.128100
      5 OA3         -0.0390     1.3130     3.8780 oh         1 BP6      -0.529100
      6 CA4          0.1010    -1.0290     3.3880 ca         1 BP6      -0.130000
      7 CA5          0.1590    -2.0630     2.4390 ca         1 BP6      -0.083000
      8 CA6          0.1280    -1.7570     1.0680 ca         1 BP6      -0.109000
      9 CB1          0.0060    -0.1290    -0.8460 cp         1 BP6      -0.018000
     10 CB2         -1.2180     0.1540    -1.5070 ca         1 BP6       0.134000
     11 CB3         -1.2440     0.4180    -2.8870 ca         1 BP6      -0.103000
     12 CB4         -0.0540     0.4020    -3.6330 ca         1 BP6      -0.092000
     13 CB5          1.1650     0.1180    -2.9960 ca         1 BP6      -0.103000
     14 CB6          1.1970    -0.1470    -1.6160 ca         1 BP6       0.134000
     15 Cl1         -2.7440     0.1760    -0.6250 cl         1 BP6      -0.188500
     16 Cl2          2.7570    -0.4900    -0.8680 cl         1 BP6      -0.188500
     17 HA2         -0.1060     1.9930     0.2330 ho         1 BP6       0.465000
     18 HA3         -0.0940     2.1430     3.3520 ho         1 BP6       0.479000
     19 HA4          0.1250    -1.2610     4.4500 ha         1 BP6       0.131000
     20 HA5          0.2280    -3.0990     2.7650 ha         1 BP6       0.120000
     21 HA6          0.1730    -2.5650     0.3400 ha         1 BP6       0.123000
     22 HB3         -2.1890     0.6340    -3.3790 ha         1 BP6       0.134500
     23 HB4         -0.0760     0.6060    -4.7020 ha         1 BP6       0.124000
     24 HB5          2.0880     0.1040    -3.5710 ha         1 BP6       0.134500
@<TRIPOS>BOND
     1     1     2 ar  
     2     1     8 ar  
     3     1     9 1   
     4     2     3 1   
     5     2     4 ar  
     6     3    17 1   
     7     4     5 1   
     8     4     6 ar  
     9     5    18 1   
    10     6     7 ar  
    11     6    19 1   
    12     7     8 ar  
    13     7    20 1   
    14     8    21 1   
    15     9    10 ar  
    16     9    14 ar  
    17    10    11 ar  
    18    10    15 1   
    19    11    12 ar  
    20    11    22 1   
    21    12    13 ar  
    22    12    23 1   
    23    13    14 ar  
    24    13    24 1   
    25    14    16 1   
@<TRIPOS>SUBSTRUCTURE
     1 BP6         1 TEMP              0 ****  ****    0 ROOT
