@<TRIPOS>MOLECULE
BP7
   24    25     1     0     0
SMALL
bcc


@<TRIPOS>ATOM
      1 CA1         -0.0230     0.1440     0.0050 cp         1 BP7      -0.027000
      2 CA2          0.7710    -0.9710    -0.2760 ca         1 BP7      -0.131000
      3 CA3          2.1530    -0.8970    -0.2510 ca         1 BP7       0.121100
      4 OA3          2.8700    -2.0050    -0.5340 oh         1 BP7      -0.497100
      5 CA4          2.7750     0.3200     0.0600 ca         1 BP7       0.046100
      6 OA4          4.1260     0.3170     0.0670 oh         1 BP7      -0.518100
      7 CA5          1.9950     1.4300     0.3370 ca         1 BP7      -0.179000
      8 CA6          0.6090     1.3460     0.3100 ca         1 BP7      -0.118000
      9 CB1         -1.4950     0.0410    -0.0140 cp         1 BP7      -0.031000
     10 CB2         -2.2820     1.1010    -0.4700 ca         1 BP7      -0.117500
     11 CB3         -3.6660     1.0090    -0.4800 ca         1 BP7      -0.129500
     12 CB4         -4.2950    -0.1480    -0.0380 ca         1 BP7      -0.125000
     13 CB5         -3.5240    -1.2110     0.4150 ca         1 BP7      -0.129500
     14 CB6         -2.1400    -1.1160     0.4280 ca         1 BP7      -0.117500
     15 HA2          0.3130    -1.9170    -0.5400 ha         1 BP7       0.151000
     16 HA3          3.8150    -1.8190    -0.4880 ho         1 BP7       0.443000
     17 HA4          4.4710     1.1850     0.3060 ho         1 BP7       0.436000
     18 HA5          2.4720     2.3700     0.5900 ha         1 BP7       0.131000
     19 HA6          0.0270     2.2250     0.5550 ha         1 BP7       0.136000
     20 HB2         -1.8090     2.0020    -0.8390 ha         1 BP7       0.132500
     21 HB3         -4.2540     1.8430    -0.8430 ha         1 BP7       0.130500
     22 HB4         -5.3740    -0.2210    -0.0470 ha         1 BP7       0.131000
     23 HB5         -4.0010    -2.1150     0.7700 ha         1 BP7       0.130500
     24 HB6         -1.5570    -1.9460     0.8080 ha         1 BP7       0.132500
@<TRIPOS>BOND
     1     1     2 ar  
     2     1     8 ar  
     3     1     9 1   
     4     2     3 ar  
     5     2    15 1   
     6     3     4 1   
     7     3     5 ar  
     8     4    16 1   
     9     5     6 1   
    10     5     7 ar  
    11     6    17 1   
    12     7     8 ar  
    13     7    18 1   
    14     8    19 1   
    15     9    10 ar  
    16     9    14 ar  
    17    10    11 ar  
    18    10    20 1   
    19    11    12 ar  
    20    11    21 1   
    21    12    13 ar  
    22    12    22 1   
    23    13    14 ar  
    24    13    23 1   
    25    14    24 1   
@<TRIPOS>SUBSTRUCTURE
     1 BP7         1 TEMP              0 ****  ****    0 ROOT
