@<TRIPOS>MOLECULE
BP7
   24    25     1     0     0
SMALL
No Charge or Current Charge


@<TRIPOS>ATOM
      1 CA1         -0.0150     0.1160     0.0110 cp         1 BP7      -0.027000
      2 CA2          0.7870    -1.0200    -0.2670 ca         1 BP7      -0.113000
      3 CA3          2.1880    -0.9370    -0.2500 ca         1 BP7       0.121100
      4 OA3          2.9470    -2.0370    -0.5240 oh         1 BP7      -0.536100
      5 CA4          2.8240     0.2850     0.0460 ca         1 BP7       0.046100
      6 OA4          4.1920     0.3620     0.0620 oh         1 BP7      -0.557100
      7 CA5          2.0500     1.4220     0.3250 ca         1 BP7      -0.161000
      8 CA6          0.6460     1.3370     0.3070 ca         1 BP7      -0.100000
      9 CB1         -1.5110     0.0300    -0.0070 cp         1 BP7      -0.031000
     10 CB2         -2.3030     1.1180    -0.4560 ca         1 BP7      -0.099500
     11 CB3         -3.7060     1.0370    -0.4730 ca         1 BP7      -0.111500
     12 CB4         -4.3490    -0.1340    -0.0410 ca         1 BP7      -0.107000
     13 CB5         -3.5870    -1.2240     0.4080 ca         1 BP7      -0.111500
     14 CB6         -2.1830    -1.1430     0.4240 ca         1 BP7      -0.099500
     15 HA2          0.3210    -1.9700    -0.5120 ha         1 BP7       0.133000
     16 HA3          3.8830    -1.7420    -0.4550 ho         1 BP7       0.482000
     17 HA4          4.4550     1.2830     0.2860 ho         1 BP7       0.475000
     18 HA5          2.5260     2.3720     0.5590 ha         1 BP7       0.113000
     19 HA6          0.0640     2.2250     0.5390 ha         1 BP7       0.118000
     20 HB2         -1.8260     2.0290    -0.8070 ha         1 BP7       0.114500
     21 HB3         -4.2950     1.8810    -0.8250 ha         1 BP7       0.112500
     22 HB4         -5.4350    -0.1970    -0.0540 ha         1 BP7       0.113000
     23 HB5         -4.0820    -2.1310     0.7460 ha         1 BP7       0.112500
     24 HB6         -1.6130    -1.9940     0.7890 ha         1 BP7       0.114500
@<TRIPOS>BOND
     1     1     2 ar  
     2     1     8 ar  
     3     1     9 1   
     4     2     3 ar  
     5     2    15 1   
     6     3     4 1   
     7     3     5 ar  
     8     4    16 1   
     9     5     6 1   
    10     5     7 ar  
    11     6    17 1   
    12     7     8 ar  
    13     7    18 1   
    14     8    19 1   
    15     9    10 ar  
    16     9    14 ar  
    17    10    11 ar  
    18    10    20 1   
    19    11    12 ar  
    20    11    21 1   
    21    12    13 ar  
    22    12    22 1   
    23    13    14 ar  
    24    13    23 1   
    25    14    24 1   
@<TRIPOS>SUBSTRUCTURE
     1 BP7         1 TEMP              0 ****  ****    0 ROOT
