@<TRIPOS>MOLECULE
BP8
   31    32     1     0     0
SMALL
abcg2


@<TRIPOS>ATOM
      1 C1           0.0110    -1.3680    -0.0120 c3         1 BP8      -0.075400
      2 C32         -1.2530    -0.5250    -0.1100 c3         1 BP8      -0.075400
      3 C30         -2.5130    -1.3900    -0.1560 c3         1 BP8      -0.111200
      4 C33         -3.7650    -0.6000    -0.2970 cc         1 BP8       0.414200
      5 S35         -4.2170     0.6290     0.8580 ss         1 BP8      -0.351300
      6 N26         -4.6230    -0.7250    -1.2450 nd         1 BP8      -0.295500
      7 N28         -5.6900     0.1020    -1.1540 nd         1 BP8      -0.410500
      8 C31         -5.6350     0.8790    -0.1140 cc         1 BP8       0.661300
      9 N27         -6.5410     1.8380     0.1720 nv         1 BP8      -1.032400
     10 H1          -0.0510    -2.0160     0.8690 hc         1 BP8       0.042700
     11 H2           0.0770    -2.0340    -0.8790 hc         1 BP8       0.042700
     12 H3          -1.3000     0.1530     0.7480 hc         1 BP8       0.048950
     13 H4          -2.4660    -2.0780    -1.0020 hc         1 BP8       0.067700
     14 H5          -2.5680    -2.0020     0.7490 hc         1 BP8       0.067700
     15 H6          -6.6110     2.1710     1.1200 hn         1 BP8       0.481500
     16 H7          -7.4250     1.7640    -0.3060 hn         1 BP8       0.481500
     17 C2           1.2720    -0.5190     0.0730 c3         1 BP8      -0.075400
     18 C3           2.5340    -1.3760     0.1880 c3         1 BP8      -0.111200
     19 C4           3.7700    -0.5640     0.3450 cc         1 BP8       0.414200
     20 S1           4.3820     0.4490    -0.9380 ss         1 BP8      -0.351300
     21 C6           5.6430     0.9110     0.1640 cc         1 BP8       0.661300
     22 N2           5.5480     0.3360     1.3250 nd         1 BP8      -0.410500
     23 N1           4.4810    -0.4910     1.4130 nd         1 BP8      -0.295500
     24 N3           6.5770     1.8310    -0.1620 nv         1 BP8      -1.032400
     25 H8          -1.2110     0.1060    -1.0020 hc         1 BP8       0.048950
     26 H9           1.3390     0.1260    -0.8090 hc         1 BP8       0.048950
     27 H10          1.2100     0.1470     0.9390 hc         1 BP8       0.048950
     28 H11          2.4610    -2.0300     1.0580 hc         1 BP8       0.067700
     29 H12          2.6230    -2.0210    -0.6910 hc         1 BP8       0.067700
     30 H13          6.8300     1.9330    -1.1310 hn         1 BP8       0.481500
     31 H14          7.3590     1.8970     0.4710 hn         1 BP8       0.481500
@<TRIPOS>BOND
     1     1     2 1   
     2     1    10 1   
     3     1    11 1   
     4     1    17 1   
     5     2     3 1   
     6     2    12 1   
     7     2    25 1   
     8     3     4 1   
     9     3    13 1   
    10     3    14 1   
    11     4     5 1   
    12     4     6 2   
    13     5     8 1   
    14     6     7 1   
    15     7     8 2   
    16     8     9 1   
    17     9    15 1   
    18     9    16 1   
    19    17    18 1   
    20    17    26 1   
    21    17    27 1   
    22    18    19 1   
    23    18    28 1   
    24    18    29 1   
    25    19    20 1   
    26    19    23 2   
    27    20    21 1   
    28    21    22 2   
    29    21    24 1   
    30    22    23 1   
    31    24    30 1   
    32    24    31 1   
@<TRIPOS>SUBSTRUCTURE
     1 BP8         1 TEMP              0 ****  ****    0 ROOT
