@<TRIPOS>MOLECULE
BP8
   31    32     1     0     0
SMALL
No Charge or Current Charge


@<TRIPOS>ATOM
      1 C1           0.0100    -1.3080     0.0430 c3         1 BP8      -0.075400
      2 C32         -1.2730    -0.4600    -0.1030 c3         1 BP8      -0.075400
      3 C30         -2.5560    -1.3160    -0.2070 c3         1 BP8      -0.111200
      4 C33         -3.8070    -0.4930    -0.3470 cc         1 BP8       0.414200
      5 S35         -4.6050     0.1630     1.0530 ss         1 BP8      -0.351300
      6 N26         -4.3740    -0.2060    -1.5130 nd         1 BP8      -0.295500
      7 N28         -5.5070     0.5730    -1.3480 nd         1 BP8      -0.410500
      8 C31         -5.7200     0.8270    -0.0770 cc         1 BP8       0.661300
      9 N27         -6.7690     1.5630     0.3210 nv         1 BP8      -1.032400
     10 H1          -0.0750    -1.9400     0.9350 hc         1 BP8       0.042700
     11 H2           0.0960    -1.9810    -0.8200 hc         1 BP8       0.042700
     12 H3          -1.3600     0.2140     0.7590 hc         1 BP8       0.048950
     13 H4          -2.4690    -1.9950    -1.0640 hc         1 BP8       0.067700
     14 H5          -2.6420    -1.9510     0.6830 hc         1 BP8       0.067700
     15 H6          -7.0460     1.4770     1.2920 hn         1 BP8       0.481500
     16 H7          -7.5150     1.6890    -0.3550 hn         1 BP8       0.481500
     17 C2           1.2900    -0.4510     0.1480 c3         1 BP8      -0.075400
     18 C3           2.5750    -1.2980     0.2930 c3         1 BP8      -0.111200
     19 C4           3.8230    -0.4650     0.3940 cc         1 BP8       0.414200
     20 S1           4.6220     0.1250    -1.0350 ss         1 BP8      -0.351300
     21 C6           5.7340     0.8450     0.0620 cc         1 BP8       0.661300
     22 N2           5.5200     0.6510     1.3440 nd         1 BP8      -0.410500
     23 N1           4.3890    -0.1210     1.5450 nd         1 BP8      -0.295500
     24 N3           6.7810     1.5640    -0.3690 nv         1 BP8      -1.032400
     25 H8          -1.1900     0.1730    -0.9960 hc         1 BP8       0.048950
     26 H9           1.3750     0.1830    -0.7450 hc         1 BP8       0.048950
     27 H10          1.2040     0.2230     1.0100 hc         1 BP8       0.048950
     28 H11          2.4900    -1.9360     1.1800 hc         1 BP8       0.067700
     29 H12          2.6630    -1.9730    -0.5670 hc         1 BP8       0.067700
     30 H13          7.0590     1.4330    -1.3350 hn         1 BP8       0.481500
     31 H14          7.5260     1.7240     0.3010 hn         1 BP8       0.481500
@<TRIPOS>BOND
     1     1     2 1   
     2     1    10 1   
     3     1    11 1   
     4     1    17 1   
     5     2     3 1   
     6     2    12 1   
     7     2    25 1   
     8     3     4 1   
     9     3    13 1   
    10     3    14 1   
    11     4     5 1   
    12     4     6 2   
    13     5     8 1   
    14     6     7 1   
    15     7     8 2   
    16     8     9 1   
    17     9    15 1   
    18     9    16 1   
    19    17    18 1   
    20    17    26 1   
    21    17    27 1   
    22    18    19 1   
    23    18    28 1   
    24    18    29 1   
    25    19    20 1   
    26    19    23 2   
    27    20    21 1   
    28    21    22 2   
    29    21    24 1   
    30    22    23 1   
    31    24    30 1   
    32    24    31 1   
@<TRIPOS>SUBSTRUCTURE
     1 BP8         1 TEMP              0 ****  ****    0 ROOT
