@<TRIPOS>MOLECULE
BP9
   28    29     1     0     0
SMALL
No Charge or Current Charge


@<TRIPOS>ATOM
      1 N26         -3.9080    -1.4340     0.3710 nc         1 BP9      -0.293000
      2 N27         -6.5310     0.6130    -0.6790 nv         1 BP9      -1.030900
      3 N28         -5.1940    -1.1570    -0.0720 nc         1 BP9      -0.409000
      4 C30         -1.7620    -0.3350     0.9440 c3         1 BP9      -0.110700
      5 C31         -5.3490     0.1380    -0.2550 cd         1 BP9       0.662300
      6 C32         -0.7600    -0.3450    -0.2330 c3         1 BP9      -0.075400
      7 C33         -3.1980    -0.3170     0.4890 cd         1 BP9       0.413700
      8 S35         -4.0070     1.1740     0.0790 ss         1 BP9      -0.355300
      9 H1          -7.3230    -0.0160    -0.5990 hn         1 BP9       0.481000
     10 H2          -6.7170     1.5990    -0.5370 hn         1 BP9       0.481000
     11 H3          -1.5850    -1.2120     1.5780 hc         1 BP9       0.068700
     12 H4          -1.5720     0.5430     1.5730 hc         1 BP9       0.068700
     13 H5          -0.9510    -1.2260    -0.8590 hc         1 BP9       0.049700
     14 H6          -0.9340     0.5380    -0.8620 hc         1 BP9       0.049700
     15 C1           0.7140    -0.3580     0.2280 c3         1 BP9      -0.075400
     16 C2           1.7160    -0.3670    -0.9490 c3         1 BP9      -0.110700
     17 C3           3.1530    -0.3780    -0.5020 cc         1 BP9       0.413700
     18 N1           3.8800    -1.4820    -0.3850 nd         1 BP9      -0.293000
     19 N2           5.1630    -1.2000     0.0520 nd         1 BP9      -0.409000
     20 C6           5.3220     0.0900     0.2400 cc         1 BP9       0.662300
     21 S1           3.9700     1.1020    -0.0890 ss         1 BP9      -0.355300
     22 N3           6.4920     0.5950     0.6600 nv         1 BP9      -1.030900
     23 H7           0.9040     0.5230     0.8560 hc         1 BP9       0.049700
     24 H8           0.8890    -1.2410     0.8560 hc         1 BP9       0.049700
     25 H9           1.5250    -1.2430    -1.5800 hc         1 BP9       0.068700
     26 H10          1.5430     0.5130    -1.5790 hc         1 BP9       0.068700
     27 H11          7.2970    -0.0140     0.5700 hn         1 BP9       0.481000
     28 H12          6.6500     1.5850     0.5050 hn         1 BP9       0.481000
@<TRIPOS>BOND
     1     1     3 1   
     2     1     7 2   
     3     2     5 1   
     4     2     9 1   
     5     2    10 1   
     6     3     5 2   
     7     4     6 1   
     8     4     7 1   
     9     4    11 1   
    10     4    12 1   
    11     5     8 1   
    12     6    13 1   
    13     6    14 1   
    14     6    15 1   
    15     7     8 1   
    16    15    16 1   
    17    15    23 1   
    18    15    24 1   
    19    16    17 1   
    20    16    25 1   
    21    16    26 1   
    22    17    18 2   
    23    17    21 1   
    24    18    19 1   
    25    19    20 2   
    26    20    21 1   
    27    20    22 1   
    28    22    27 1   
    29    22    28 1   
@<TRIPOS>SUBSTRUCTURE
     1 BP9         1 TEMP              0 ****  ****    0 ROOT
