@<TRIPOS>MOLECULE
BP9
   28    29     1     0     0
SMALL
abcg2


@<TRIPOS>ATOM
      1 N26         -3.9300    -1.2850     0.8230 nc         1 BP9      -0.293000
      2 N27         -6.5070     0.4190    -0.8250 nv         1 BP9      -1.030900
      3 N28         -5.1940    -1.1100     0.3730 nc         1 BP9      -0.409000
      4 C30         -1.7000    -0.2490     0.9700 c3         1 BP9      -0.110700
      5 C31         -5.3590     0.0280    -0.2310 cd         1 BP9       0.662300
      6 C32         -0.7490    -0.2600    -0.2260 c3         1 BP9      -0.075400
      7 C33         -3.1350    -0.3060     0.5810 cd         1 BP9       0.413700
      8 S35         -3.9160     0.9940    -0.2830 ss         1 BP9      -0.355300
      9 H1          -7.3290    -0.1050    -0.5660 hn         1 BP9       0.481000
     10 H2          -6.6740     1.4050    -0.9420 hn         1 BP9       0.481000
     11 H3          -1.5080    -1.1130     1.6090 hc         1 BP9       0.068700
     12 H4          -1.5220     0.6420     1.5780 hc         1 BP9       0.068700
     13 H5          -0.9460    -1.1440    -0.8380 hc         1 BP9       0.049700
     14 H6          -0.9380     0.6080    -0.8640 hc         1 BP9       0.049700
     15 C1           0.7080    -0.2550     0.2140 c3         1 BP9      -0.075400
     16 C2           1.6590    -0.2880    -0.9820 c3         1 BP9      -0.110700
     17 C3           3.0950    -0.3430    -0.5930 cc         1 BP9       0.413700
     18 N1           3.8940    -1.3150    -0.8480 nd         1 BP9      -0.293000
     19 N2           5.1590    -1.1380    -0.4000 nd         1 BP9      -0.409000
     20 C6           5.3190    -0.0060     0.2160 cc         1 BP9       0.662300
     21 S1           3.8700     0.9510     0.2840 ss         1 BP9      -0.355300
     22 N3           6.4660     0.3850     0.8110 nv         1 BP9      -1.030900
     23 H7           0.9000     0.6350     0.8210 hc         1 BP9       0.049700
     24 H8           0.9020    -1.1170     0.8580 hc         1 BP9       0.049700
     25 H9           1.4610    -1.1690    -1.5940 hc         1 BP9       0.068700
     26 H10          1.4870     0.5860    -1.6160 hc         1 BP9       0.068700
     27 H11          7.2900    -0.1320     0.5470 hn         1 BP9       0.481000
     28 H12          6.6260     1.3700     0.9450 hn         1 BP9       0.481000
@<TRIPOS>BOND
     1     1     3 1   
     2     1     7 2   
     3     2     5 1   
     4     2     9 1   
     5     2    10 1   
     6     3     5 2   
     7     4     6 1   
     8     4     7 1   
     9     4    11 1   
    10     4    12 1   
    11     5     8 1   
    12     6    13 1   
    13     6    14 1   
    14     6    15 1   
    15     7     8 1   
    16    15    16 1   
    17    15    23 1   
    18    15    24 1   
    19    16    17 1   
    20    16    25 1   
    21    16    26 1   
    22    17    18 2   
    23    17    21 1   
    24    18    19 1   
    25    19    20 2   
    26    20    21 1   
    27    20    22 1   
    28    22    27 1   
    29    22    28 1   
@<TRIPOS>SUBSTRUCTURE
     1 BP9         1 TEMP              0 ****  ****    0 ROOT
