@<TRIPOS>MOLECULE
BPA
   39    43     1     0     0
SMALL
bcc


@<TRIPOS>ATOM
      1 C10          1.6110     0.0230    -2.1410 c6         1 BPA      -0.078100
      2 C9           1.1800     0.3730    -3.5610 c6         1 BPA       0.155100
      3 C8          -0.1100    -0.3500    -3.8890 c6         1 BPA       0.153100
      4 C7          -1.2070     0.1990    -2.9830 c6         1 BPA       0.153400
      5 C6A         -0.8320     0.1200    -1.5170 ca         1 BPA      -0.097300
      6 C6          -1.8460     0.1300    -0.5660 ca         1 BPA      -0.095000
      7 C5A         -1.5690     0.0960     0.7950 ca         1 BPA      -0.034000
      8 C5          -2.6080     0.1160     1.7830 ca         1 BPA      -0.112000
      9 C4          -2.3190     0.0760     3.1030 ca         1 BPA      -0.112000
     10 C3A         -0.9630     0.0060     3.5610 ca         1 BPA      -0.032000
     11 C3          -0.6430    -0.0410     4.9180 ca         1 BPA      -0.111000
     12 C2           0.6790    -0.1130     5.3330 ca         1 BPA      -0.124000
     13 C1           1.7070    -0.1410     4.4040 ca         1 BPA      -0.111000
     14 C2A          1.4280    -0.0950     3.0370 ca         1 BPA      -0.033000
     15 C2B          0.0830    -0.0180     2.6040 ca         1 BPA      -0.016000
     16 C2C         -0.2190     0.0320     1.2160 ca         1 BPA      -0.009000
     17 C12          2.4590    -0.1270     2.0460 ca         1 BPA      -0.111000
     18 C11          2.1690    -0.0760     0.7250 ca         1 BPA      -0.118000
     19 C1B          0.8180     0.0150     0.2520 ca         1 BPA      -0.028000
     20 C1A          0.5040     0.0710    -1.1200 ca         1 BPA      -0.043300
     21 O9           2.1640    -0.0080    -4.4920 oh         1 BPA      -0.572800
     22 O8          -0.4280    -0.1420    -5.2390 oh         1 BPA      -0.578800
     23 O7          -2.3930    -0.5140    -3.2610 oh         1 BPA      -0.596800
     24 H101         2.0410    -0.9850    -2.1520 hc         1 BPA       0.061200
     25 H102         2.4220     0.6970    -1.8530 hc         1 BPA       0.061200
     26 H9           0.9920     1.4560    -3.6220 h1         1 BPA       0.039700
     27 H8           0.0200    -1.4240    -3.6710 h1         1 BPA       0.061700
     28 H7          -1.3410     1.2600    -3.2390 h1         1 BPA       0.048700
     29 H6          -2.8820     0.1670    -0.8820 ha         1 BPA       0.132000
     30 H5          -3.6370     0.1660     1.4500 ha         1 BPA       0.132000
     31 H4          -3.1130     0.0930     3.8390 ha         1 BPA       0.133000
     32 H3          -1.4400    -0.0220     5.6510 ha         1 BPA       0.132000
     33 H2           0.9070    -0.1490     6.3900 ha         1 BPA       0.133000
     34 H1           2.7360    -0.2010     4.7360 ha         1 BPA       0.133000
     35 H12          3.4900    -0.1960     2.3710 ha         1 BPA       0.132000
     36 H11          2.9820    -0.1110     0.0140 ha         1 BPA       0.130000
     37 HO9          2.9670     0.4840    -4.2930 ho         1 BPA       0.401000
     38 HO8         -1.3060    -0.5110    -5.3890 ho         1 BPA       0.413000
     39 HO7         -3.1260     0.1040    -3.3230 ho         1 BPA       0.409000
@<TRIPOS>BOND
     1     1     2 1   
     2     1    20 1   
     3     1    24 1   
     4     1    25 1   
     5     2     3 1   
     6     2    21 1   
     7     2    26 1   
     8     3     4 1   
     9     3    22 1   
    10     3    27 1   
    11     4     5 1   
    12     4    23 1   
    13     4    28 1   
    14     5     6 ar  
    15     5    20 ar  
    16     6     7 ar  
    17     6    29 1   
    18     7     8 ar  
    19     7    16 ar  
    20     8     9 ar  
    21     8    30 1   
    22     9    10 ar  
    23     9    31 1   
    24    10    11 ar  
    25    10    15 ar  
    26    11    12 ar  
    27    11    32 1   
    28    12    13 ar  
    29    12    33 1   
    30    13    14 ar  
    31    13    34 1   
    32    14    15 ar  
    33    14    17 ar  
    34    15    16 ar  
    35    16    19 ar  
    36    17    18 ar  
    37    17    35 1   
    38    18    19 ar  
    39    18    36 1   
    40    19    20 ar  
    41    21    37 1   
    42    22    38 1   
    43    23    39 1   
@<TRIPOS>SUBSTRUCTURE
     1 BPA         1 TEMP              0 ****  ****    0 ROOT
