@<TRIPOS>MOLECULE
BPA
   39    43     1     0     0
SMALL
No Charge or Current Charge


@<TRIPOS>ATOM
      1 C10          1.6550     0.0370    -2.1700 c6         1 BPA      -0.078100
      2 C9           1.2340     0.3850    -3.6180 c6         1 BPA       0.178300
      3 C8          -0.0850    -0.3580    -3.9730 c6         1 BPA       0.176300
      4 C7          -1.2210     0.1370    -3.0340 c6         1 BPA       0.176600
      5 C6A         -0.8400     0.0930    -1.5390 ca         1 BPA      -0.097300
      6 C6          -1.8600     0.1550    -0.5660 ca         1 BPA      -0.077000
      7 C5A         -1.5570     0.1210     0.8020 ca         1 BPA      -0.034000
      8 C5          -2.5960     0.1770     1.7500 ca         1 BPA      -0.094000
      9 C4          -2.3060     0.1340     3.1230 ca         1 BPA      -0.094000
     10 C3A         -0.9730     0.0320     3.5570 ca         1 BPA      -0.032000
     11 C3          -0.6780    -0.0140     4.9320 ca         1 BPA      -0.093000
     12 C2           0.6540    -0.1170     5.3650 ca         1 BPA      -0.106000
     13 C1           1.6970    -0.1720     4.4250 ca         1 BPA      -0.093000
     14 C2A          1.4090    -0.1250     3.0480 ca         1 BPA      -0.033000
     15 C2B          0.0730    -0.0220     2.6080 ca         1 BPA      -0.016000
     16 C2C         -0.2160     0.0250     1.2240 ca         1 BPA      -0.009000
     17 C12          2.4470    -0.1820     2.1060 ca         1 BPA      -0.093000
     18 C11          2.1620    -0.1310     0.7320 ca         1 BPA      -0.100000
     19 C1B          0.8270    -0.0200     0.2670 ca         1 BPA      -0.028000
     20 C1A          0.5190     0.0410    -1.1230 ca         1 BPA      -0.043300
     21 O9           2.3090     0.0320    -4.5130 oh         1 BPA      -0.695000
     22 O8          -0.4850    -0.1470    -5.3450 oh         1 BPA      -0.641000
     23 O7          -2.4140    -0.6280    -3.3040 oh         1 BPA      -0.719000
     24 H101         2.1260    -0.9550    -2.1600 hc         1 BPA       0.061200
     25 H102         2.4330     0.7540    -1.8750 hc         1 BPA       0.061200
     26 H9           1.0390     1.4670    -3.6740 h1         1 BPA       0.039700
     27 H8           0.0680    -1.4320    -3.7900 h1         1 BPA       0.061700
     28 H7          -1.4070     1.1950    -3.2770 h1         1 BPA       0.048700
     29 H6          -2.9010     0.2320    -0.8670 ha         1 BPA       0.114000
     30 H5          -3.6320     0.2520     1.4260 ha         1 BPA       0.114000
     31 H4          -3.1170     0.1770     3.8460 ha         1 BPA       0.115000
     32 H3          -1.4800     0.0280     5.6660 ha         1 BPA       0.114000
     33 H2           0.8790    -0.1530     6.4280 ha         1 BPA       0.115000
     34 H1           2.7260    -0.2520     4.7680 ha         1 BPA       0.115000
     35 H12          3.4800    -0.2660     2.4350 ha         1 BPA       0.114000
     36 H11          3.0000    -0.1890     0.0450 ha         1 BPA       0.112000
     37 HO9          2.9970     0.7300    -4.4200 ho         1 BPA       0.500000
     38 HO8         -1.4250    -0.4380    -5.3730 ho         1 BPA       0.452000
     39 HO7         -3.1660    -0.1430    -2.8950 ho         1 BPA       0.508000
@<TRIPOS>BOND
     1     1     2 1   
     2     1    20 1   
     3     1    24 1   
     4     1    25 1   
     5     2     3 1   
     6     2    21 1   
     7     2    26 1   
     8     3     4 1   
     9     3    22 1   
    10     3    27 1   
    11     4     5 1   
    12     4    23 1   
    13     4    28 1   
    14     5     6 ar  
    15     5    20 ar  
    16     6     7 ar  
    17     6    29 1   
    18     7     8 ar  
    19     7    16 ar  
    20     8     9 ar  
    21     8    30 1   
    22     9    10 ar  
    23     9    31 1   
    24    10    11 ar  
    25    10    15 ar  
    26    11    12 ar  
    27    11    32 1   
    28    12    13 ar  
    29    12    33 1   
    30    13    14 ar  
    31    13    34 1   
    32    14    15 ar  
    33    14    17 ar  
    34    15    16 ar  
    35    16    19 ar  
    36    17    18 ar  
    37    17    35 1   
    38    18    19 ar  
    39    18    36 1   
    40    19    20 ar  
    41    21    37 1   
    42    22    38 1   
    43    23    39 1   
@<TRIPOS>SUBSTRUCTURE
     1 BPA         1 TEMP              0 ****  ****    0 ROOT
