@<TRIPOS>MOLECULE
BPB
  139   144     1     0     0
SMALL
abcg2


@<TRIPOS>ATOM
      1 C1         135.3960    52.5940     0.5700 c3         1 BPB       0.206800
      2 C2         136.0420    52.1440    -0.6930 c2         1 BPB      -0.241200
      3 C3         136.0150    50.9190    -1.2260 c2         1 BPB      -0.080400
      4 C4         135.2480    49.7560    -0.6700 c3         1 BPB      -0.061900
      5 C5         136.8430    50.6180    -2.4470 c3         1 BPB      -0.045200
      6 C6         136.0760    49.9960    -3.6160 c3         1 BPB      -0.069400
      7 C7         134.9380    50.8700    -4.1290 c3         1 BPB      -0.074400
      8 C8         134.3530    50.4340    -5.4760 c3         1 BPB      -0.057700
      9 C9         133.3310    51.4650    -5.9490 c3         1 BPB      -0.087100
     10 NA         130.2290    58.4110     2.9950 ne         1 BPB      -0.611300
     11 NB         127.7740    58.5310     4.6090 na         1 BPB      -0.643000
     12 NC         128.8790    60.8060     6.3130 ne         1 BPB      -0.616300
     13 ND         131.1690    60.7220     4.7420 na         1 BPB      -0.032000
     14 C10        133.7540    49.0270    -5.4230 c3         1 BPB      -0.072400
     15 C11        133.3520    48.4580    -6.7810 c3         1 BPB      -0.075400
     16 C12        132.8410    47.0240    -6.6840 c3         1 BPB      -0.073400
     17 C13        132.4300    46.3890    -8.0170 c3         1 BPB      -0.057700
     18 C14        131.6290    45.1150    -7.7620 c3         1 BPB      -0.087100
     19 C15        133.6470    46.1170    -8.9070 c3         1 BPB      -0.073400
     20 C16        133.3140    45.6950   -10.3340 c3         1 BPB      -0.074400
     21 C17        134.5640    45.4610   -11.1750 c3         1 BPB      -0.072400
     22 C18        134.3030    45.1530   -12.6510 c3         1 BPB      -0.059700
     23 C19        133.5090    43.8640   -12.8430 c3         1 BPB      -0.087100
     24 C1A        131.4480    58.5440     2.4110 ce         1 BPB       0.106400
     25 O1A        134.1820    54.1040     2.4110 o          1 BPB      -0.491000
     26 C1B        127.4730    57.5260     3.7380 cc         1 BPB       0.169000
     27 C1C        127.6980    60.6400     6.8670 cf         1 BPB       0.478600
     28 C1D        131.5780    61.7720     5.5370 cd         1 BPB      -0.154800
     29 C20        135.6210    45.0780   -13.4150 c3         1 BPB      -0.087100
     30 C2A        131.6870    57.4920     1.3530 c5         1 BPB      -0.049500
     31 O2A        134.5080    53.6810     0.2440 os         1 BPB      -0.446100
     32 C2B        126.1520    57.0590     4.0800 cc         1 BPB      -0.012200
     33 C2C        127.4170    61.6290     7.9780 c5         1 BPB      -0.109800
     34 C2D        132.8550    62.1840     5.1040 cc         1 BPB      -0.022300
     35 C3A        130.2670    56.9400     1.1440 c5         1 BPB      -0.148000
     36 C3B        125.7100    57.8230     5.1280 cd         1 BPB      -0.201200
     37 C3C        128.7540    62.3090     8.0970 ce         1 BPB      -0.110200
     38 C3D        133.1740    61.3340     4.0380 cc         1 BPB      -0.261600
     39 C4A        129.5480    57.4820     2.3590 cf         1 BPB       0.483600
     40 C4B        126.7490    58.7690     5.4740 cc         1 BPB       0.199000
     41 C4C        129.5490    61.8130     6.9610 ce         1 BPB       0.087600
     42 C4D        132.1150    60.4460     3.8430 cd         1 BPB      -0.069800
     43 CAA        132.6700    56.4300     1.8550 c3         1 BPB      -0.060400
     44 CAB        124.3710    57.6810     5.7420 c          1 BPB       0.598300
     45 CAC        129.1490    63.1560     9.0500 c2         1 BPB      -0.183200
     46 CAD        134.1980    61.0500     3.0620 c          1 BPB       0.631700
     47 CBA        133.0520    55.4450     0.7610 c3         1 BPB      -0.141400
     48 CBB        123.6260    58.9110     6.1890 c3         1 BPB      -0.194100
     49 OBB        123.8670    56.5810     5.8310 o          1 BPB      -0.515100
     50 CBC        128.3310    63.5960    10.2170 c3         1 BPB      -0.059900
     51 CBD        133.6910    59.8240     2.2410 c5         1 BPB      -0.191500
     52 OBD        135.2500    61.6080     2.8500 o          1 BPB      -0.508100
     53 CED        132.6700    61.5360    -0.8520 c3         1 BPB       0.148900
     54 CGA        133.9690    54.3550     1.2510 c          1 BPB       0.592100
     55 CGD        133.7080    60.1920     0.7760 c          1 BPB       0.607100
     56 CHA        132.3170    59.5190     2.8040 cf         1 BPB      -0.024400
     57 CHB        128.2620    57.0500     2.7170 cf         1 BPB      -0.330600
     58 CHC        126.7260    59.6960     6.4920 cf         1 BPB      -0.337600
     59 CHD        130.7890    62.2690     6.5920 cf         1 BPB      -0.098200
     60 CMA        129.6140    57.4400    -0.1430 c3         1 BPB      -0.082100
     61 CMC        126.2930    62.5920     7.5820 c3         1 BPB      -0.075100
     62 CMD        133.6890    63.2700     5.6880 c3         1 BPB      -0.029800
     63 H1         134.8350    51.8030     1.0700 h1         1 BPB       0.054200
     64 H1A        136.1570    52.9510     1.2700 h1         1 BPB       0.054200
     65 H2         136.6450    52.9000    -1.1900 ha         1 BPB       0.179000
     66 H4         135.9160    48.9090    -0.4980 hc         1 BPB       0.043033
     67 H4A        134.7370    49.9720     0.2640 hc         1 BPB       0.043033
     68 H4B        134.4950    49.4160    -1.3840 hc         1 BPB       0.043033
     69 H5         137.3370    51.5330    -2.7860 hc         1 BPB       0.046700
     70 H5A        137.6410    49.9250    -2.1550 hc         1 BPB       0.046700
     71 H6         136.7910    49.8220    -4.4270 hc         1 BPB       0.039200
     72 H6A        135.7060    49.0090    -3.3300 hc         1 BPB       0.039200
     73 H7         134.1360    50.9180    -3.3820 hc         1 BPB       0.042700
     74 H7A        135.3080    51.8970    -4.2320 hc         1 BPB       0.042700
     75 H8         135.1810    50.4180    -6.1980 hc         1 BPB       0.042700
     76 H9         132.9440    51.2400    -6.9430 hc         1 BPB       0.032033
     77 H9A        132.4810    51.5070    -5.2640 hc         1 BPB       0.032033
     78 H9B        133.7710    52.4630    -5.9900 hc         1 BPB       0.032033
     79 H171       128.6590    59.0120     4.6110 hn         1 BPB       0.554000
     80 H181       130.2760    60.2700     4.8690 hn         1 BPB       0.390000
     81 H10        134.4770    48.3390    -4.9740 hc         1 BPB       0.036700
     82 H10A       132.8850    49.0310    -4.7530 hc         1 BPB       0.036700
     83 H11        132.5750    49.0770    -7.2390 hc         1 BPB       0.038700
     84 H11A       134.2160    48.5120    -7.4510 hc         1 BPB       0.038700
     85 H12        133.6020    46.3920    -6.2100 hc         1 BPB       0.037200
     86 H12A       131.9790    47.0110    -6.0080 hc         1 BPB       0.037200
     87 H13        131.7790    47.1030    -8.5400 hc         1 BPB       0.044700
     88 H14        131.2680    44.6590    -8.6840 hc         1 BPB       0.032033
     89 H14A       132.2410    44.3710    -7.2450 hc         1 BPB       0.032033
     90 H14B       130.7580    45.3180    -7.1360 hc         1 BPB       0.032033
     91 H15        134.2710    47.0140    -8.9520 hc         1 BPB       0.037700
     92 H15A       134.2630    45.3430    -8.4310 hc         1 BPB       0.037700
     93 H16        132.7030    44.7890   -10.3230 hc         1 BPB       0.037700
     94 H16A       132.7000    46.4720   -10.8040 hc         1 BPB       0.037700
     95 H17        135.2020    46.3500   -11.1110 hc         1 BPB       0.036200
     96 H17A       135.1460    44.6410   -10.7380 hc         1 BPB       0.036200
     97 H18        133.7160    45.9810   -13.0670 hc         1 BPB       0.043700
     98 H19        133.3590    43.6510   -13.9020 hc         1 BPB       0.031533
     99 H19A       134.0420    43.0150   -12.4080 hc         1 BPB       0.031533
    100 H19B       132.5240    43.9110   -12.3780 hc         1 BPB       0.031533
    101 H20        135.4570    44.8980   -14.4790 hc         1 BPB       0.031533
    102 H20A       136.1950    46.0020   -13.3180 hc         1 BPB       0.031533
    103 H20B       136.2420    44.2630   -13.0350 hc         1 BPB       0.031533
    104 H42        132.0750    57.9320     0.4280 hc         1 BPB       0.076700
    105 H43        127.1340    61.1070     8.8980 hc         1 BPB       0.077700
    106 H44        130.2480    55.8470     1.1470 hc         1 BPB       0.073700
    107 HAA        133.5750    56.9130     2.2290 hc         1 BPB       0.063700
    108 HAAA       132.2260    55.9050     2.7030 hc         1 BPB       0.063700
    109 HAC        130.1530    63.5670     8.9980 ha         1 BPB       0.174000
    110 HBA        132.1630    54.9590     0.3420 hc         1 BPB       0.073200
    111 HBAA       133.5240    55.9670    -0.0750 hc         1 BPB       0.073200
    112 HBB        122.5590    58.7670     6.0200 hc         1 BPB       0.065367
    113 HBBA       123.7620    59.0600     7.2630 hc         1 BPB       0.065367
    114 HBBB       123.9520    59.8160     5.6810 hc         1 BPB       0.065367
    115 HBC        128.9120    63.5310    11.1380 hc         1 BPB       0.043033
    116 HBCA       128.0310    64.6420    10.1150 hc         1 BPB       0.043033
    117 H55        127.4270    63.0030    10.3460 hc         1 BPB       0.043033
    118 HBD        134.3950    59.0000     2.3900 hc         1 BPB       0.114700
    119 HED        131.8410    62.2370    -0.8690 h1         1 BPB       0.048700
    120 HEDA       133.5830    62.0470    -1.1570 h1         1 BPB       0.048700
    121 HEDB       132.4650    60.7190    -1.5430 h1         1 BPB       0.048700
    122 HHB        127.8420    56.2530     2.1170 ha         1 BPB       0.195000
    123 HHC        125.8320    59.7070     7.0970 ha         1 BPB       0.190000
    124 HHD        131.2140    63.0850     7.1620 ha         1 BPB       0.192000
    125 HMA        128.5820    57.0980    -0.2280 hc         1 BPB       0.042033
    126 HMAA       129.6120    58.5310    -0.1850 hc         1 BPB       0.042033
    127 HMAB       130.1600    57.0710    -1.0120 hc         1 BPB       0.042033
    128 HMB        125.6410    55.0010     3.8490 hc         1 BPB       0.061367
    129 HMBA       124.3740    56.1080     3.3510 hc         1 BPB       0.061367
    130 HMBB       125.7890    55.8760     2.3330 hc         1 BPB       0.061367
    131 HMC        126.1410    63.3460     8.3540 hc         1 BPB       0.040033
    132 HMCA       126.5340    63.1060     6.6510 hc         1 BPB       0.040033
    133 HMCB       125.3500    62.0620     7.4430 hc         1 BPB       0.040033
    134 HMD        134.3920    62.8730     6.4230 hc         1 BPB       0.048033
    135 HMDA       134.2760    63.7660     4.9170 hc         1 BPB       0.048033
    136 HMDB       133.0870    64.0270     6.1880 hc         1 BPB       0.048033
    137 CMB        125.4510    55.9600     3.3640 c3         1 BPB      -0.048900
    138 O1D        134.5040    59.7720    -0.0240 o          1 BPB      -0.476000
    139 O2D        132.7580    61.0680     0.4940 os         1 BPB      -0.428100
@<TRIPOS>BOND
     1     1     2 1   
     2     1    31 1   
     3     1    63 1   
     4     1    64 1   
     5     2     3 2   
     6     2    65 1   
     7     3     4 1   
     8     3     5 1   
     9     4    66 1   
    10     4    67 1   
    11     4    68 1   
    12     5     6 1   
    13     5    69 1   
    14     5    70 1   
    15     6     7 1   
    16     6    71 1   
    17     6    72 1   
    18     7     8 1   
    19     7    73 1   
    20     7    74 1   
    21     8     9 1   
    22     8    14 1   
    23     8    75 1   
    24     9    76 1   
    25     9    77 1   
    26     9    78 1   
    27    10    24 1   
    28    10    39 2   
    29    11    26 1   
    30    11    40 1   
    31    11    79 1   
    32    12    27 2   
    33    12    41 1   
    34    13    28 1   
    35    13    42 1   
    36    13    80 1   
    37    14    15 1   
    38    14    81 1   
    39    14    82 1   
    40    15    16 1   
    41    15    83 1   
    42    15    84 1   
    43    16    17 1   
    44    16    85 1   
    45    16    86 1   
    46    17    18 1   
    47    17    19 1   
    48    17    87 1   
    49    18    88 1   
    50    18    89 1   
    51    18    90 1   
    52    19    20 1   
    53    19    91 1   
    54    19    92 1   
    55    20    21 1   
    56    20    93 1   
    57    20    94 1   
    58    21    22 1   
    59    21    95 1   
    60    21    96 1   
    61    22    23 1   
    62    22    29 1   
    63    22    97 1   
    64    23    98 1   
    65    23    99 1   
    66    23   100 1   
    67    24    30 1   
    68    24    56 2   
    69    25    54 2   
    70    26    32 1   
    71    26    57 2   
    72    27    33 1   
    73    27    58 1   
    74    28    34 2   
    75    28    59 1   
    76    29   101 1   
    77    29   102 1   
    78    29   103 1   
    79    30    35 1   
    80    30    43 1   
    81    30   104 1   
    82    31    54 1   
    83    32    36 2   
    84    32   137 1   
    85    33    37 1   
    86    33    61 1   
    87    33   105 1   
    88    34    38 1   
    89    34    62 1   
    90    35    39 1   
    91    35    60 1   
    92    35   106 1   
    93    36    40 1   
    94    36    44 1   
    95    37    41 1   
    96    37    45 2   
    97    38    42 2   
    98    38    46 1   
    99    39    57 1   
   100    40    58 2   
   101    41    59 2   
   102    42    56 1   
   103    43    47 1   
   104    43   107 1   
   105    43   108 1   
   106    44    48 1   
   107    44    49 2   
   108    45    50 1   
   109    45   109 1   
   110    46    51 1   
   111    46    52 2   
   112    47    54 1   
   113    47   110 1   
   114    47   111 1   
   115    48   112 1   
   116    48   113 1   
   117    48   114 1   
   118    50   115 1   
   119    50   116 1   
   120    50   117 1   
   121    51    55 1   
   122    51    56 1   
   123    51   118 1   
   124    53   119 1   
   125    53   120 1   
   126    53   121 1   
   127    53   139 1   
   128    55   138 2   
   129    55   139 1   
   130    57   122 1   
   131    58   123 1   
   132    59   124 1   
   133    60   125 1   
   134    60   126 1   
   135    60   127 1   
   136    61   131 1   
   137    61   132 1   
   138    61   133 1   
   139    62   134 1   
   140    62   135 1   
   141    62   136 1   
   142   128   137 1   
   143   129   137 1   
   144   130   137 1   
@<TRIPOS>SUBSTRUCTURE
     1 BPB         1 TEMP              0 ****  ****    0 ROOT
