@<TRIPOS>MOLECULE
BPB
  139   144     1     0     0
SMALL
No Charge or Current Charge


@<TRIPOS>ATOM
      1 C1         131.8020    52.0660    -0.0990 c3         1 BPB       0.206800
      2 C2         133.0860    52.1720    -0.8930 c2         1 BPB      -0.241200
      3 C3         134.0320    51.2240    -1.0240 c2         1 BPB      -0.080400
      4 C4         133.9700    49.8520    -0.3670 c3         1 BPB      -0.061900
      5 C5         135.2940    51.4450    -1.8480 c3         1 BPB      -0.045200
      6 C6         135.3220    50.6570    -3.1790 c3         1 BPB      -0.069400
      7 C7         134.1350    50.9880    -4.1200 c3         1 BPB      -0.074400
      8 C8         134.2120    50.3490    -5.5360 c3         1 BPB      -0.057700
      9 C9         133.0950    50.9310    -6.4390 c3         1 BPB      -0.087100
     10 NA         128.6610    58.5630     2.8380 ne         1 BPB      -0.611300
     11 NB         127.2450    59.3250     5.3240 na         1 BPB      -0.643000
     12 NC         129.7620    60.9750     6.4040 ne         1 BPB      -0.616300
     13 ND         131.0670    60.3230     3.9540 na         1 BPB      -0.032000
     14 C10        134.1800    48.7910    -5.4900 c3         1 BPB      -0.072400
     15 C11        134.3280    48.0930    -6.8640 c3         1 BPB      -0.075400
     16 C12        134.4330    46.5520    -6.7440 c3         1 BPB      -0.073400
     17 C13        134.4310    45.7790    -8.0940 c3         1 BPB      -0.057700
     18 C14        134.3200    44.2560    -7.8300 c3         1 BPB      -0.087100
     19 C15        135.6560    46.1350    -8.9890 c3         1 BPB      -0.073400
     20 C16        135.6710    45.4560   -10.3800 c3         1 BPB      -0.074400
     21 C17        136.8360    45.9460   -11.2750 c3         1 BPB      -0.072400
     22 C18        136.8360    45.3730   -12.7190 c3         1 BPB      -0.059700
     23 C19        136.9880    43.8330   -12.7600 c3         1 BPB      -0.087100
     24 C1A        129.6280    58.2780     1.8900 ce         1 BPB       0.106400
     25 O1A        129.3820    52.5790     1.0960 o          1 BPB      -0.491000
     26 C1B        126.2720    58.5420     4.7470 cc         1 BPB       0.169000
     27 C1C        128.8930    61.1120     7.3600 cf         1 BPB       0.478600
     28 C1D        132.1740    60.9290     4.5500 cd         1 BPB      -0.154800
     29 C20        137.9250    46.0510   -13.5810 c3         1 BPB      -0.087100
     30 C2A        129.0950    57.2460     0.8880 c5         1 BPB      -0.049500
     31 O2A        131.0690    53.2840    -0.2940 os         1 BPB      -0.446100
     32 C2B        125.1770    58.5120     5.6540 cc         1 BPB      -0.012200
     33 C2C        129.4810    61.9510     8.5290 c5         1 BPB      -0.109800
     34 C2D        133.2560    60.7140     3.7010 cc         1 BPB      -0.022300
     35 C3A        127.5450    57.3710     1.1950 c5         1 BPB      -0.148000
     36 C3B        125.5330    59.2930     6.7380 cd         1 BPB      -0.201200
     37 C3C        130.9170    62.1630     8.0320 ce         1 BPB      -0.110200
     38 C3D        132.7500    59.9420     2.6270 cc         1 BPB      -0.261600
     39 C4A        127.5040    58.0740     2.5690 cf         1 BPB       0.483600
     40 C4B        126.8380    59.7670     6.5740 cc         1 BPB       0.199000
     41 C4C        130.9970    61.5660     6.6950 ce         1 BPB       0.087600
     42 C4D        131.4580    59.7140     2.7910 cd         1 BPB      -0.069800
     43 CAA        129.6560    55.8190     1.1300 c3         1 BPB      -0.060400
     44 CAB        124.5610    59.5690     7.8640 c          1 BPB       0.598300
     45 CAC        131.9420    62.7580     8.6900 c2         1 BPB      -0.183200
     46 CAD        133.2450    59.2290     1.4340 c          1 BPB       0.631700
     47 CBA        129.2250    54.7770     0.0680 c3         1 BPB      -0.141400
     48 CBB        124.7240    60.7480     8.8280 c3         1 BPB      -0.194100
     49 OBB        123.5570    58.8850     8.0170 o          1 BPB      -0.515100
     50 CBC        131.8860    63.3530    10.0820 c3         1 BPB      -0.059900
     51 CBD        132.0040    58.4970     0.8140 c5         1 BPB      -0.191500
     52 OBD        134.4190    59.1240     1.1010 o          1 BPB      -0.508100
     53 CED        131.7210    61.3230    -1.6370 c3         1 BPB       0.148900
     54 CGA        129.8630    53.4140     0.3420 c          1 BPB       0.592100
     55 CGD        131.7330    59.1810    -0.5260 c          1 BPB       0.607100
     56 CHA        130.8780    58.8180     1.8550 cf         1 BPB      -0.024400
     57 CHB        126.4040    57.9620     3.5130 cf         1 BPB      -0.330600
     58 CHC        127.5830    60.4770     7.4780 cf         1 BPB      -0.337600
     59 CHD        132.0970    61.5550     5.8710 cf         1 BPB      -0.098200
     60 CMA        126.7770    58.2000     0.1380 c3         1 BPB      -0.082100
     61 CMC        128.6860    63.2620     8.7390 c3         1 BPB      -0.075100
     62 CMD        134.6990    61.1050     3.8680 c3         1 BPB      -0.029800
     63 H1         131.2190    51.2030    -0.4490 h1         1 BPB       0.054200
     64 H1A        132.0350    51.9190     0.9640 h1         1 BPB       0.054200
     65 H2         133.2100    53.1320    -1.3950 ha         1 BPB       0.179000
     66 H4         134.8560    49.6730     0.2550 hc         1 BPB       0.043033
     67 H4A        133.0940    49.7350     0.2810 hc         1 BPB       0.043033
     68 H4B        133.9230    49.0530    -1.1160 hc         1 BPB       0.043033
     69 H5         135.4060    52.5110    -2.0840 hc         1 BPB       0.046700
     70 H5A        136.1800    51.1800    -1.2580 hc         1 BPB       0.046700
     71 H6         136.2630    50.8810    -3.6970 hc         1 BPB       0.039200
     72 H6A        135.3370    49.5850    -2.9540 hc         1 BPB       0.039200
     73 H7         133.1970    50.6810    -3.6400 hc         1 BPB       0.042700
     74 H7A        134.0850    52.0780    -4.2290 hc         1 BPB       0.042700
     75 H8         135.1710    50.6490    -5.9770 hc         1 BPB       0.042700
     76 H9         133.2280    50.6270    -7.4840 hc         1 BPB       0.032033
     77 H9A        132.1060    50.5970    -6.1030 hc         1 BPB       0.032033
     78 H9B        133.1100    52.0280    -6.4180 hc         1 BPB       0.032033
     79 H171       128.1530    59.4950     4.9070 hn         1 BPB       0.554000
     80 H181       130.1440    60.2880     4.3670 hn         1 BPB       0.390000
     81 H10        134.9950    48.4340    -4.8520 hc         1 BPB       0.036700
     82 H10A       133.2450    48.4620    -5.0190 hc         1 BPB       0.036700
     83 H11        133.4680    48.3360    -7.4970 hc         1 BPB       0.038700
     84 H11A       135.2220    48.4890    -7.3590 hc         1 BPB       0.038700
     85 H12        135.3400    46.2960    -6.1820 hc         1 BPB       0.037200
     86 H12A       133.5850    46.2030    -6.1400 hc         1 BPB       0.037200
     87 H13        133.5250    46.0770    -8.6380 hc         1 BPB       0.044700
     88 H14        134.1430    43.7020    -8.7590 hc         1 BPB       0.032033
     89 H14A       135.2360    43.8720    -7.3650 hc         1 BPB       0.032033
     90 H14B       133.4800    44.0380    -7.1600 hc         1 BPB       0.032033
     91 H15        135.6780    47.2180    -9.1530 hc         1 BPB       0.037700
     92 H15A       136.5810    45.8800    -8.4560 hc         1 BPB       0.037700
     93 H16        135.7550    44.3710   -10.2500 hc         1 BPB       0.037700
     94 H16A       134.7190    45.6520   -10.8880 hc         1 BPB       0.037700
     95 H17        136.7870    47.0410   -11.3350 hc         1 BPB       0.036200
     96 H17A       137.7890    45.7020   -10.7890 hc         1 BPB       0.036200
     97 H18        135.8680    45.6190   -13.1740 hc         1 BPB       0.043700
     98 H19        137.0340    43.4770   -13.7960 hc         1 BPB       0.031533
     99 H19A       137.9050    43.5170   -12.2490 hc         1 BPB       0.031533
    100 H19B       136.1360    43.3370   -12.2810 hc         1 BPB       0.031533
    101 H20        137.8860    45.6870   -14.6150 hc         1 BPB       0.031533
    102 H20A       137.7830    47.1380   -13.6030 hc         1 BPB       0.031533
    103 H20B       138.9250    45.8430   -13.1810 hc         1 BPB       0.031533
    104 H42        129.3360    57.5310    -0.1430 hc         1 BPB       0.076700
    105 H43        129.4610    61.3820     9.4650 hc         1 BPB       0.077700
    106 H44        127.0500    56.3960     1.2510 hc         1 BPB       0.073700
    107 HAA        130.7500    55.8450     1.1550 hc         1 BPB       0.063700
    108 HAAA       129.3460    55.4660     2.1230 hc         1 BPB       0.063700
    109 HAC        132.9280    62.8410     8.2350 ha         1 BPB       0.174000
    110 HBA        128.1350    54.6690     0.0750 hc         1 BPB       0.073200
    111 HBAA       129.5700    55.1410    -0.9070 hc         1 BPB       0.073200
    112 HBB        123.7620    61.0450     9.2600 hc         1 BPB       0.065367
    113 HBBA       125.3840    60.4450     9.6470 hc         1 BPB       0.065367
    114 HBBB       125.2160    61.5920     8.3330 hc         1 BPB       0.065367
    115 HBC        132.8870    63.4070    10.5270 hc         1 BPB       0.043033
    116 HBCA       131.4780    64.3700    10.0600 hc         1 BPB       0.043033
    117 H55        131.2600    62.7510    10.7520 hc         1 BPB       0.043033
    118 HBD        132.2240    57.4430     0.6440 hc         1 BPB       0.114700
    119 HED        131.8720    62.3880    -1.4210 h1         1 BPB       0.048700
    120 HEDA       132.4440    61.0260    -2.4090 h1         1 BPB       0.048700
    121 HEDB       130.7080    61.1980    -2.0420 h1         1 BPB       0.048700
    122 HHB        125.5630    57.3730     3.1620 ha         1 BPB       0.195000
    123 HHC        127.1700    60.5850     8.4660 ha         1 BPB       0.190000
    124 HHD        133.0140    62.0330     6.2090 ha         1 BPB       0.192000
    125 HMA        125.7200    58.3070     0.4120 hc         1 BPB       0.042033
    126 HMAA       127.2000    59.2070     0.0360 hc         1 BPB       0.042033
    127 HMAB       126.8180    57.7170    -0.8460 hc         1 BPB       0.042033
    128 HMB        123.7210    56.9740     6.0920 hc         1 BPB       0.061367
    129 HMBA       123.0210    58.4790     5.4630 hc         1 BPB       0.061367
    130 HMBB       123.8170    57.3570     4.3750 hc         1 BPB       0.061367
    131 HMC        129.1110    63.8630     9.5510 hc         1 BPB       0.040033
    132 HMCA       128.6900    63.8760     7.8300 hc         1 BPB       0.040033
    133 HMCB       127.6410    63.0550     8.9980 hc         1 BPB       0.040033
    134 HMD        135.2490    60.3320     4.4160 hc         1 BPB       0.048033
    135 HMDA       135.1850    61.2440     2.8950 hc         1 BPB       0.048033
    136 HMDB       134.7900    62.0460     4.4230 hc         1 BPB       0.048033
    137 CMB        123.8710    57.7910     5.3770 c3         1 BPB      -0.048900
    138 O1D        131.5390    58.5890    -1.5790 o          1 BPB      -0.476000
    139 O2D        131.8960    60.5410    -0.4420 os         1 BPB      -0.428100
@<TRIPOS>BOND
     1     1     2 1   
     2     1    31 1   
     3     1    63 1   
     4     1    64 1   
     5     2     3 2   
     6     2    65 1   
     7     3     4 1   
     8     3     5 1   
     9     4    66 1   
    10     4    67 1   
    11     4    68 1   
    12     5     6 1   
    13     5    69 1   
    14     5    70 1   
    15     6     7 1   
    16     6    71 1   
    17     6    72 1   
    18     7     8 1   
    19     7    73 1   
    20     7    74 1   
    21     8     9 1   
    22     8    14 1   
    23     8    75 1   
    24     9    76 1   
    25     9    77 1   
    26     9    78 1   
    27    10    24 1   
    28    10    39 2   
    29    11    26 1   
    30    11    40 1   
    31    11    79 1   
    32    12    27 2   
    33    12    41 1   
    34    13    28 1   
    35    13    42 1   
    36    13    80 1   
    37    14    15 1   
    38    14    81 1   
    39    14    82 1   
    40    15    16 1   
    41    15    83 1   
    42    15    84 1   
    43    16    17 1   
    44    16    85 1   
    45    16    86 1   
    46    17    18 1   
    47    17    19 1   
    48    17    87 1   
    49    18    88 1   
    50    18    89 1   
    51    18    90 1   
    52    19    20 1   
    53    19    91 1   
    54    19    92 1   
    55    20    21 1   
    56    20    93 1   
    57    20    94 1   
    58    21    22 1   
    59    21    95 1   
    60    21    96 1   
    61    22    23 1   
    62    22    29 1   
    63    22    97 1   
    64    23    98 1   
    65    23    99 1   
    66    23   100 1   
    67    24    30 1   
    68    24    56 2   
    69    25    54 2   
    70    26    32 1   
    71    26    57 2   
    72    27    33 1   
    73    27    58 1   
    74    28    34 2   
    75    28    59 1   
    76    29   101 1   
    77    29   102 1   
    78    29   103 1   
    79    30    35 1   
    80    30    43 1   
    81    30   104 1   
    82    31    54 1   
    83    32    36 2   
    84    32   137 1   
    85    33    37 1   
    86    33    61 1   
    87    33   105 1   
    88    34    38 1   
    89    34    62 1   
    90    35    39 1   
    91    35    60 1   
    92    35   106 1   
    93    36    40 1   
    94    36    44 1   
    95    37    41 1   
    96    37    45 2   
    97    38    42 2   
    98    38    46 1   
    99    39    57 1   
   100    40    58 2   
   101    41    59 2   
   102    42    56 1   
   103    43    47 1   
   104    43   107 1   
   105    43   108 1   
   106    44    48 1   
   107    44    49 2   
   108    45    50 1   
   109    45   109 1   
   110    46    51 1   
   111    46    52 2   
   112    47    54 1   
   113    47   110 1   
   114    47   111 1   
   115    48   112 1   
   116    48   113 1   
   117    48   114 1   
   118    50   115 1   
   119    50   116 1   
   120    50   117 1   
   121    51    55 1   
   122    51    56 1   
   123    51   118 1   
   124    53   119 1   
   125    53   120 1   
   126    53   121 1   
   127    53   139 1   
   128    55   138 2   
   129    55   139 1   
   130    57   122 1   
   131    58   123 1   
   132    59   124 1   
   133    60   125 1   
   134    60   126 1   
   135    60   127 1   
   136    61   131 1   
   137    61   132 1   
   138    61   133 1   
   139    62   134 1   
   140    62   135 1   
   141    62   136 1   
   142   128   137 1   
   143   129   137 1   
   144   130   137 1   
@<TRIPOS>SUBSTRUCTURE
     1 BPB         1 TEMP              0 ****  ****    0 ROOT
