@<TRIPOS>MOLECULE
BPC
   39    43     1     0     0
SMALL
No Charge or Current Charge


@<TRIPOS>ATOM
      1 C1          -4.8640    -0.8130     0.0650 ca         1 BPC      -0.094000
      2 C2          -5.3560     0.4950    -0.0760 ca         1 BPC      -0.107000
      3 C3          -4.4630     1.5730    -0.1980 ca         1 BPC      -0.094000
      4 C3A         -3.0740     1.3450    -0.1770 ca         1 BPC      -0.034000
      5 C4          -2.1790     2.4180    -0.3010 ca         1 BPC      -0.094000
      6 C5          -0.7930     2.1940    -0.2770 ca         1 BPC      -0.101000
      7 C5A         -0.2690     0.8850    -0.1270 ca         1 BPC      -0.029000
      8 C6           1.1350     0.6390    -0.0910 ca         1 BPC      -0.044300
      9 C7           1.6090    -0.7010    -0.0020 ca         1 BPC      -0.082300
     10 C8           0.6820    -1.7570     0.1260 ca         1 BPC      -0.077000
     11 C8A         -0.6980    -1.5120     0.1200 ca         1 BPC      -0.034000
     12 C9          -1.5990    -2.5870     0.2410 ca         1 BPC      -0.093000
     13 C10         -2.9830    -2.3560     0.2250 ca         1 BPC      -0.096000
     14 C1A         -3.4760    -1.0470     0.0850 ca         1 BPC      -0.032000
     15 C3B         -2.5750     0.0340    -0.0360 ca         1 BPC      -0.014000
     16 C5B         -1.1780    -0.1950    -0.0160 ca         1 BPC      -0.011000
     17 C11          3.1210    -1.0250     0.0080 c6         1 BPC       0.181600
     18 O1           3.4180    -2.2160    -0.7530 oh         1 BPC      -0.727000
     19 C12          3.9880     0.1460    -0.5380 c6         1 BPC       0.177300
     20 O2           5.3900    -0.1640    -0.4070 oh         1 BPC      -0.648000
     21 C13          3.6030     1.4710     0.1760 c6         1 BPC       0.177300
     22 O3           3.7810     1.3950     1.6070 oh         1 BPC      -0.708000
     23 C14          2.1340     1.8190    -0.1620 c6         1 BPC      -0.074100
     24 H1          -5.5620    -1.6420     0.1580 ha         1 BPC       0.114000
     25 H2          -6.4290     0.6740    -0.0920 ha         1 BPC       0.114000
     26 H3          -4.8520     2.5830    -0.3070 ha         1 BPC       0.114000
     27 H4          -2.5550     3.4330    -0.4170 ha         1 BPC       0.113000
     28 H5          -0.1460     3.0570    -0.3880 ha         1 BPC       0.110000
     29 H8           1.0300    -2.7810     0.2320 ha         1 BPC       0.114000
     30 H9          -1.2290    -3.6040     0.3460 ha         1 BPC       0.114000
     31 H10         -3.6700    -3.1940     0.3190 ha         1 BPC       0.114000
     32 H6           3.4040    -1.1810     1.0610 h1         1 BPC       0.071700
     33 HA           3.0460    -2.9780    -0.2520 ho         1 BPC       0.507000
     34 H7           3.7470     0.2660    -1.6050 h1         1 BPC       0.049700
     35 HB           5.4530    -1.1180    -0.6410 ho         1 BPC       0.453000
     36 H11          4.2410     2.2720    -0.2290 h1         1 BPC       0.049700
     37 HC           3.7490     2.3180     1.9480 ho         1 BPC       0.503000
     38 H4'1         1.8150     2.6290     0.5070 hc         1 BPC       0.057700
     39 H4'2         2.1010     2.2360    -1.1780 hc         1 BPC       0.057700
@<TRIPOS>BOND
     1     1     2 ar  
     2     1    14 ar  
     3     1    24 1   
     4     2     3 ar  
     5     2    25 1   
     6     3     4 ar  
     7     3    26 1   
     8     4     5 ar  
     9     4    15 ar  
    10     5     6 ar  
    11     5    27 1   
    12     6     7 ar  
    13     6    28 1   
    14     7     8 ar  
    15     7    16 ar  
    16     8     9 ar  
    17     8    23 1   
    18     9    10 ar  
    19     9    17 1   
    20    10    11 ar  
    21    10    29 1   
    22    11    12 ar  
    23    11    16 ar  
    24    12    13 ar  
    25    12    30 1   
    26    13    14 ar  
    27    13    31 1   
    28    14    15 ar  
    29    15    16 ar  
    30    17    18 1   
    31    17    19 1   
    32    17    32 1   
    33    18    33 1   
    34    19    20 1   
    35    19    21 1   
    36    19    34 1   
    37    20    35 1   
    38    21    22 1   
    39    21    23 1   
    40    21    36 1   
    41    22    37 1   
    42    23    38 1   
    43    23    39 1   
@<TRIPOS>SUBSTRUCTURE
     1 BPC         1 TEMP              0 ****  ****    0 ROOT
