@<TRIPOS>MOLECULE
BPC
   39    43     1     0     0
SMALL
abcg2


@<TRIPOS>ATOM
      1 C1          -4.8470    -0.7710     0.0730 ca         1 BPC      -0.094000
      2 C2          -5.3210     0.5280    -0.0540 ca         1 BPC      -0.107000
      3 C3          -4.4390     1.5900    -0.1710 ca         1 BPC      -0.094000
      4 C3A         -3.0590     1.3700    -0.1610 ca         1 BPC      -0.034000
      5 C4          -2.1160     2.4370    -0.2840 ca         1 BPC      -0.094000
      6 C5          -0.7830     2.2050    -0.2670 ca         1 BPC      -0.101000
      7 C5A         -0.2470     0.8820    -0.1220 ca         1 BPC      -0.029000
      8 C6           1.1380     0.6290    -0.0970 ca         1 BPC      -0.044300
      9 C7           1.5940    -0.6860     0.0090 ca         1 BPC      -0.082300
     10 C8           0.6860    -1.7350     0.1060 ca         1 BPC      -0.077000
     11 C8A         -0.6860    -1.5160     0.1070 ca         1 BPC      -0.034000
     12 C9          -1.6270    -2.5920     0.2200 ca         1 BPC      -0.093000
     13 C10         -2.9580    -2.3610     0.2120 ca         1 BPC      -0.096000
     14 C1A         -3.4760    -1.0310     0.0860 ca         1 BPC      -0.032000
     15 C3B         -2.5670     0.0500    -0.0290 ca         1 BPC      -0.014000
     16 C5B         -1.1660    -0.1910    -0.0140 ca         1 BPC      -0.011000
     17 C11          3.0740    -1.0140     0.0500 c6         1 BPC       0.181600
     18 O1           3.3620    -2.1850    -0.6890 oh         1 BPC      -0.727000
     19 C12          3.9190     0.1190    -0.5200 c6         1 BPC       0.177300
     20 O2           5.2910    -0.1200    -0.3420 oh         1 BPC      -0.648000
     21 C13          3.5430     1.4270     0.1450 c6         1 BPC       0.177300
     22 O3           3.7070     1.2750     1.5380 oh         1 BPC      -0.708000
     23 C14          2.1100     1.7740    -0.2310 c6         1 BPC      -0.074100
     24 H1          -5.5440    -1.5950     0.1600 ha         1 BPC       0.114000
     25 H2          -6.3870     0.7100    -0.0620 ha         1 BPC       0.114000
     26 H3          -4.8160     2.6000    -0.2720 ha         1 BPC       0.114000
     27 H4          -2.4870     3.4490    -0.3960 ha         1 BPC       0.113000
     28 H5          -0.1100     3.0450    -0.3700 ha         1 BPC       0.110000
     29 H8           1.0470    -2.7530     0.1880 ha         1 BPC       0.114000
     30 H9          -1.2480    -3.6030     0.3140 ha         1 BPC       0.114000
     31 H10         -3.6580    -3.1830     0.2990 ha         1 BPC       0.114000
     32 H6           3.3570    -1.1590     1.0990 h1         1 BPC       0.071700
     33 HA           3.5410    -2.9040    -0.0780 ho         1 BPC       0.507000
     34 H7           3.6730     0.2220    -1.5900 h1         1 BPC       0.049700
     35 HB           5.4930    -0.9740    -0.7400 ho         1 BPC       0.453000
     36 H11          4.1960     2.2230    -0.2380 h1         1 BPC       0.049700
     37 HC           3.4210     2.0880     1.9660 ho         1 BPC       0.503000
     38 H4'1         1.7910     2.6270     0.3750 hc         1 BPC       0.057700
     39 H4'2         2.1000     2.1370    -1.2650 hc         1 BPC       0.057700
@<TRIPOS>BOND
     1     1     2 ar  
     2     1    14 ar  
     3     1    24 1   
     4     2     3 ar  
     5     2    25 1   
     6     3     4 ar  
     7     3    26 1   
     8     4     5 ar  
     9     4    15 ar  
    10     5     6 ar  
    11     5    27 1   
    12     6     7 ar  
    13     6    28 1   
    14     7     8 ar  
    15     7    16 ar  
    16     8     9 ar  
    17     8    23 1   
    18     9    10 ar  
    19     9    17 1   
    20    10    11 ar  
    21    10    29 1   
    22    11    12 ar  
    23    11    16 ar  
    24    12    13 ar  
    25    12    30 1   
    26    13    14 ar  
    27    13    31 1   
    28    14    15 ar  
    29    15    16 ar  
    30    17    18 1   
    31    17    19 1   
    32    17    32 1   
    33    18    33 1   
    34    19    20 1   
    35    19    21 1   
    36    19    34 1   
    37    20    35 1   
    38    21    22 1   
    39    21    23 1   
    40    21    36 1   
    41    22    37 1   
    42    23    38 1   
    43    23    39 1   
@<TRIPOS>SUBSTRUCTURE
     1 BPC         1 TEMP              0 ****  ****    0 ROOT
