@<TRIPOS>MOLECULE
BPD
   40    43     1     0     0
SMALL
bcc


@<TRIPOS>ATOM
      1 F1          -0.1150    -0.5400    -6.1910 f          1 BPD      -0.243300
      2 F2           0.8980    -1.8130    -4.7810 f          1 BPD      -0.243300
      3 F3          -1.2450    -1.6690    -4.7490 f          1 BPD      -0.243300
      4 O1           0.0130     0.2970     2.4490 os         1 BPD      -0.324800
      5 O2           1.4690    -1.3590     4.3630 o          1 BPD      -0.809050
      6 O3           3.1050     0.1290     4.6730 o          1 BPD      -0.809050
      7 O4          -1.8680     0.6970     4.6340 o          1 BPD      -0.809050
      8 O5          -2.7730    -1.3370     4.4620 o          1 BPD      -0.809050
      9 N1           0.0180     0.6080    -0.2680 na         1 BPD      -0.132200
     10 C1          -0.1230    -0.9560    -4.9220 c3         1 BPD       0.717200
     11 C2          -0.0340     0.1740    -3.9430 ca         1 BPD      -0.208300
     12 C3           0.0600     1.4930    -4.3670 ca         1 BPD      -0.106000
     13 C4           0.1380     2.5110    -3.4270 ca         1 BPD      -0.149000
     14 C5           0.1190     2.2170    -2.0740 ca         1 BPD      -0.086000
     15 C6           0.0270     0.8960    -1.6540 ca         1 BPD       0.061800
     16 C7          -0.0460    -0.1290    -2.5860 ca         1 BPD      -0.085000
     17 C8           1.2160     0.3020     0.3820 ca         1 BPD      -0.085600
     18 C9           2.4320     0.1950    -0.2820 ca         1 BPD      -0.200500
     19 C10          3.5890    -0.0870     0.4370 ca         1 BPD      -0.168500
     20 C11          3.5360    -0.2780     1.8040 ca         1 BPD      -0.121500
     21 C12          2.3180    -0.2160     2.4870 ca         1 BPD      -0.168400
     22 C13          1.1790     0.0980     1.7650 ca         1 BPD       0.333000
     23 C14          2.2800    -0.5010     3.9840 c          1 BPD       0.941200
     24 C16         -1.1870     0.3180     0.3790 ca         1 BPD      -0.085600
     25 C17         -2.4020     0.2150    -0.2870 ca         1 BPD      -0.200500
     26 C18         -3.5590    -0.0810     0.4250 ca         1 BPD      -0.168500
     27 C19         -3.5090    -0.2850     1.7910 ca         1 BPD      -0.121500
     28 C20         -2.3040    -0.1560     2.4860 ca         1 BPD      -0.168400
     29 C21         -1.1610     0.1510     1.7680 ca         1 BPD       0.333000
     30 C22         -2.2960    -0.2820     4.0040 c          1 BPD       0.941200
     31 H3           0.0750     1.7420    -5.4180 ha         1 BPD       0.127000
     32 H4           0.2110     3.5390    -3.7560 ha         1 BPD       0.123000
     33 H5           0.1760     3.0060    -1.3350 ha         1 BPD       0.157000
     34 H7          -0.1130    -1.1540    -2.2400 ha         1 BPD       0.165000
     35 H9           2.4880     0.3450    -1.3520 ha         1 BPD       0.100000
     36 H10          4.5330    -0.1530    -0.0880 ha         1 BPD       0.093000
     37 H11          4.4410    -0.4920     2.3570 ha         1 BPD       0.129500
     38 H17         -2.4550     0.3630    -1.3570 ha         1 BPD       0.100000
     39 H18         -4.5000    -0.1570    -0.1050 ha         1 BPD       0.093000
     40 H19         -4.4120    -0.5300     2.3350 ha         1 BPD       0.129500
@<TRIPOS>BOND
     1     1    10 1   
     2     2    10 1   
     3     3    10 1   
     4     4    22 1   
     5     4    29 1   
     6     5    23 1   
     7     6    23 1   
     8     7    30 1   
     9     8    30 1   
    10     9    15 1   
    11     9    17 1   
    12     9    24 1   
    13    10    11 1   
    14    11    12 ar  
    15    11    16 ar  
    16    12    13 ar  
    17    12    31 1   
    18    13    14 ar  
    19    13    32 1   
    20    14    15 ar  
    21    14    33 1   
    22    15    16 ar  
    23    16    34 1   
    24    17    18 ar  
    25    17    22 ar  
    26    18    19 ar  
    27    18    35 1   
    28    19    20 ar  
    29    19    36 1   
    30    20    21 ar  
    31    20    37 1   
    32    21    22 ar  
    33    21    23 1   
    34    24    25 ar  
    35    24    29 ar  
    36    25    26 ar  
    37    25    38 1   
    38    26    27 ar  
    39    26    39 1   
    40    27    28 ar  
    41    27    40 1   
    42    28    29 ar  
    43    28    30 1   
@<TRIPOS>SUBSTRUCTURE
     1 BPD         1 TEMP              0 ****  ****    0 ROOT
