@<TRIPOS>MOLECULE
BPD
   40    43     1     0     0
SMALL
No Charge or Current Charge


@<TRIPOS>ATOM
      1 F1           0.5420    -0.4560    -6.2880 f          1 BPD      -0.122000
      2 F2           0.6490    -2.0340    -4.8040 f          1 BPD      -0.122000
      3 F3          -1.2860    -1.2800    -5.4460 f          1 BPD      -0.122000
      4 O1           0.0180    -0.0290     2.4720 os         1 BPD      -0.236000
      5 O2           1.8510    -1.3620     4.4640 o          1 BPD      -0.703750
      6 O3           3.0520     0.4150     4.6770 o          1 BPD      -0.703750
      7 O4          -1.8760     0.7050     4.6900 o          1 BPD      -0.703750
      8 O5          -2.9490    -1.1580     4.5400 o          1 BPD      -0.703750
      9 N1           0.0080     0.2770    -0.3010 na         1 BPD      -0.030800
     10 C1          -0.0210    -0.9090    -5.1440 c3         1 BPD       0.353300
     11 C2          -0.0010     0.1380    -4.0240 ca         1 BPD      -0.208300
     12 C3          -0.0050     1.5180    -4.3250 ca         1 BPD      -0.088000
     13 C4           0.0030     2.4720    -3.2930 ca         1 BPD      -0.131000
     14 C5           0.0110     2.0600    -1.9500 ca         1 BPD      -0.068000
     15 C6           0.0070     0.6900    -1.6360 ca         1 BPD       0.061800
     16 C7          -0.0020    -0.2660    -2.6700 ca         1 BPD      -0.067000
     17 C8           1.2250     0.1160     0.3860 ca         1 BPD      -0.071000
     18 C9           2.4660     0.1150    -0.2930 ca         1 BPD      -0.182500
     19 C10          3.6650    -0.0300     0.4190 ca         1 BPD      -0.150500
     20 C11          3.6460    -0.1830     1.8130 ca         1 BPD      -0.103500
     21 C12          2.4200    -0.1980     2.5090 ca         1 BPD      -0.103100
     22 C13          1.2150    -0.0430     1.7930 ca         1 BPD       0.158000
     23 C14          2.4090    -0.3770     4.0010 c          1 BPD       0.730600
     24 C16         -1.2050     0.1560     0.4000 ca         1 BPD      -0.071000
     25 C17         -2.4510     0.1630    -0.2700 ca         1 BPD      -0.182500
     26 C18         -3.6470     0.0440     0.4530 ca         1 BPD      -0.150500
     27 C19         -3.6190    -0.0770     1.8500 ca         1 BPD      -0.103500
     28 C20         -2.3890    -0.0810     2.5390 ca         1 BPD      -0.103100
     29 C21         -1.1860     0.0250     1.8090 ca         1 BPD       0.158000
     30 C22         -2.3700    -0.2040     4.0370 c          1 BPD       0.730600
     31 H3          -0.0190     1.8580    -5.3580 ha         1 BPD       0.109000
     32 H4           0.0020     3.5320    -3.5340 ha         1 BPD       0.105000
     33 H5           0.0170     2.8000    -1.1540 ha         1 BPD       0.139000
     34 H7          -0.0120    -1.3220    -2.4110 ha         1 BPD       0.147000
     35 H9           2.5160     0.2300    -1.3730 ha         1 BPD       0.082000
     36 H10          4.6150    -0.0260    -0.1120 ha         1 BPD       0.075000
     37 H11          4.5810    -0.2980     2.3570 ha         1 BPD       0.111500
     38 H17         -2.5080     0.2560    -1.3520 ha         1 BPD       0.082000
     39 H18         -4.6000     0.0480    -0.0700 ha         1 BPD       0.075000
     40 H19         -4.5520    -0.1640     2.4040 ha         1 BPD       0.111500
@<TRIPOS>BOND
     1     1    10 1   
     2     2    10 1   
     3     3    10 1   
     4     4    22 1   
     5     4    29 1   
     6     5    23 1   
     7     6    23 1   
     8     7    30 1   
     9     8    30 1   
    10     9    15 1   
    11     9    17 1   
    12     9    24 1   
    13    10    11 1   
    14    11    12 ar  
    15    11    16 ar  
    16    12    13 ar  
    17    12    31 1   
    18    13    14 ar  
    19    13    32 1   
    20    14    15 ar  
    21    14    33 1   
    22    15    16 ar  
    23    16    34 1   
    24    17    18 ar  
    25    17    22 ar  
    26    18    19 ar  
    27    18    35 1   
    28    19    20 ar  
    29    19    36 1   
    30    20    21 ar  
    31    20    37 1   
    32    21    22 ar  
    33    21    23 1   
    34    24    25 ar  
    35    24    29 ar  
    36    25    26 ar  
    37    25    38 1   
    38    26    27 ar  
    39    26    39 1   
    40    27    28 ar  
    41    27    40 1   
    42    28    29 ar  
    43    28    30 1   
@<TRIPOS>SUBSTRUCTURE
     1 BPD         1 TEMP              0 ****  ****    0 ROOT
