@<TRIPOS>MOLECULE
BPE
   26    25     1     0     0
SMALL
abcg2


@<TRIPOS>ATOM
      1 N            3.4590    49.0900    14.7560 n8         1 BPE      -0.971200
      2 CA           3.5380    48.5700    16.1110 c3         1 BPE       0.185500
      3 CB           4.0000    47.1160    16.1130 c3         1 BPE       0.059600
      4 SG           5.5890    46.8150    15.2810 ss         1 BPE      -0.361000
      5 C05          5.4040    45.0290    14.9890 c3         1 BPE       0.040600
      6 C            4.3790    49.4780    16.9930 c3         1 BPE       0.170600
      7 O            5.6950    49.5690    16.5060 oh         1 BPE      -0.626000
      8 C08          6.6240    44.4630    14.2770 c3         1 BPE      -0.060400
      9 C09          6.8350    45.0210    12.8770 c3         1 BPE       0.146800
     10 N10          7.9530    44.3520    12.2280 n8         1 BPE      -0.997200
     11 HN1          2.9890    49.9870    14.7690 hn         1 BPE       0.393500
     12 HN2          2.8750    48.4810    14.1950 hn         1 BPE       0.393500
     13 HA           2.5540    48.5390    16.6090 h1         1 BPE       0.009700
     14 HB1          4.0470    46.7550    17.1420 h1         1 BPE       0.049200
     15 HB2          3.2460    46.5130    15.5970 h1         1 BPE       0.049200
     16 H051         5.2630    44.5230    15.9450 h1         1 BPE       0.049200
     17 H052         4.5050    44.8570    14.3920 h1         1 BPE       0.049200
     18 H1           3.8960    50.4650    17.0300 h1         1 BPE       0.013200
     19 H2           4.3480    49.0750    18.0140 h1         1 BPE       0.013200
     20 HO           6.2140    50.0730    17.1390 ho         1 BPE       0.436000
     21 H081         7.5220    44.6270    14.8780 hc         1 BPE       0.051700
     22 H082         6.4920    43.3780    14.2110 hc         1 BPE       0.051700
     23 H091         5.8900    44.9450    12.3190 h1         1 BPE       0.036700
     24 H092         7.0680    46.0870    12.9360 h1         1 BPE       0.036700
     25 H101         8.1210    44.7730    11.3230 hn         1 BPE       0.390000
     26 H102         7.7020    43.3890    12.0370 hn         1 BPE       0.390000
@<TRIPOS>BOND
     1     1     2 1   
     2     1    11 1   
     3     1    12 1   
     4     2     3 1   
     5     2     6 1   
     6     2    13 1   
     7     3     4 1   
     8     3    14 1   
     9     3    15 1   
    10     4     5 1   
    11     5     8 1   
    12     5    16 1   
    13     5    17 1   
    14     6     7 1   
    15     6    18 1   
    16     6    19 1   
    17     7    20 1   
    18     8     9 1   
    19     8    21 1   
    20     8    22 1   
    21     9    10 1   
    22     9    23 1   
    23     9    24 1   
    24    10    25 1   
    25    10    26 1   
@<TRIPOS>SUBSTRUCTURE
     1 BPE         1 TEMP              0 ****  ****    0 ROOT
