@<TRIPOS>MOLECULE
BPE
   26    25     1     0     0
SMALL
No Charge or Current Charge


@<TRIPOS>ATOM
      1 N            3.3310    49.3890    14.8040 n8         1 BPE      -0.971200
      2 CA           3.4810    48.6520    16.0920 c3         1 BPE       0.185500
      3 CB           3.8670    47.1540    15.8870 c3         1 BPE       0.059600
      4 SG           5.4710    46.8740    14.9890 ss         1 BPE      -0.361000
      5 C05          5.5140    45.0250    14.9880 c3         1 BPE       0.040600
      6 C            4.3650    49.4050    17.1480 c3         1 BPE       0.170600
      7 O            5.6590    49.7830    16.6450 oh         1 BPE      -0.626000
      8 C08          6.7810    44.4850    14.2910 c3         1 BPE      -0.060400
      9 C09          6.8360    44.7980    12.7790 c3         1 BPE       0.146800
     10 N10          8.0310    44.2070    12.1430 n8         1 BPE      -0.997200
     11 HN1          3.1300    50.3740    15.0090 hn         1 BPE       0.393500
     12 HN2          2.4860    49.0600    14.3260 hn         1 BPE       0.393500
     13 HA           2.4740    48.6370    16.5310 h1         1 BPE       0.009700
     14 HB1          3.9270    46.6640    16.8670 h1         1 BPE       0.049200
     15 HB2          3.0700    46.6580    15.3190 h1         1 BPE       0.049200
     16 H051         5.4960    44.6750    16.0280 h1         1 BPE       0.049200
     17 H052         4.6180    44.6420    14.4810 h1         1 BPE       0.049200
     18 H1           3.8240    50.3070    17.4670 h1         1 BPE       0.013200
     19 H2           4.4760    48.7690    18.0370 h1         1 BPE       0.013200
     20 HO           6.1200    50.2550    17.3710 ho         1 BPE       0.436000
     21 H081         7.6680    44.8990    14.7850 hc         1 BPE       0.051700
     22 H082         6.8140    43.3980    14.4320 hc         1 BPE       0.051700
     23 H091         5.9380    44.3980    12.2870 h1         1 BPE       0.036700
     24 H092         6.8590    45.8860    12.6240 h1         1 BPE       0.036700
     25 H101         7.9990    44.3920    11.1330 hn         1 BPE       0.390000
     26 H102         7.9700    43.1830    12.2020 hn         1 BPE       0.390000
@<TRIPOS>BOND
     1     1     2 1   
     2     1    11 1   
     3     1    12 1   
     4     2     3 1   
     5     2     6 1   
     6     2    13 1   
     7     3     4 1   
     8     3    14 1   
     9     3    15 1   
    10     4     5 1   
    11     5     8 1   
    12     5    16 1   
    13     5    17 1   
    14     6     7 1   
    15     6    18 1   
    16     6    19 1   
    17     7    20 1   
    18     8     9 1   
    19     8    21 1   
    20     8    22 1   
    21     9    10 1   
    22     9    23 1   
    23     9    24 1   
    24    10    25 1   
    25    10    26 1   
@<TRIPOS>SUBSTRUCTURE
     1 BPE         1 TEMP              0 ****  ****    0 ROOT
