@<TRIPOS>MOLECULE
BPF
   53    55     1     0     0
SMALL
No Charge or Current Charge


@<TRIPOS>ATOM
      1 C1           2.3690     0.4690    -0.1450 cc         1 BPF       0.057000
      2 C2           2.5660    -0.9500    -0.1640 cc         1 BPF      -0.155500
      3 C3           3.8340    -1.4920    -0.2430 cd         1 BPF      -0.124750
      4 C4           4.9950    -0.6260    -0.3120 cd         1 BPF      -0.168500
      5 C5           4.7900     0.8100    -0.2840 cd         1 BPF      -0.124750
      6 C6           3.5140     1.3310    -0.2050 cc         1 BPF      -0.155500
      7 O1          -0.0330     0.1910    -0.0050 os         1 BPF      -0.233000
      8 CA           1.0780     0.9790    -0.0650 cd         1 BPF       0.064500
      9 CB           0.7000     2.3660    -0.0350 cd         1 BPF      -0.125500
     10 C17         -0.6750     2.3770     0.0470 cc         1 BPF      -0.125500
     11 C16         -1.1140     1.0160     0.0640 cc         1 BPF       0.064500
     12 C7           6.2590    -1.1450    -0.3920 c2         1 BPF       0.488000
     13 N1           6.6190    -2.4430    -0.4500 nv         1 BPF      -0.918000
     14 N2           7.4500    -0.4960    -0.4710 nu         1 BPF      -0.761700
     15 C8           8.2090    -0.1400     0.7390 c3         1 BPF       0.190300
     16 C9           9.5470     0.5090     0.3550 c3         1 BPF      -0.117100
     17 C10         -2.3950     0.4800     0.1370 cd         1 BPF       0.057000
     18 C11         -2.5600    -0.9510     0.1360 cd         1 BPF      -0.155500
     19 C12         -3.8380    -1.4700     0.2080 cc         1 BPF      -0.124750
     20 C13         -4.9960    -0.6080     0.2890 cc         1 BPF      -0.168500
     21 C14         -4.7910     0.8220     0.2780 cc         1 BPF      -0.124750
     22 C15         -3.5250     1.3690     0.2070 cd         1 BPF      -0.155500
     23 C18         -6.2560    -1.1310     0.3610 c2         1 BPF       0.488000
     24 N3          -6.6080    -2.4330     0.4030 nv         1 BPF      -0.918000
     25 N4          -7.4360    -0.4610     0.4480 nu         1 BPF      -0.761700
     26 C19         -8.2020    -0.0960    -0.7550 c3         1 BPF       0.190300
     27 C20         -9.5220     0.5820    -0.3590 c3         1 BPF      -0.117100
     28 H2           1.7020    -1.6070    -0.1130 ha         1 BPF       0.214500
     29 H3           3.9410    -2.5750    -0.2430 ha         1 BPF       0.200000
     30 H5           5.6340     1.4950    -0.3220 ha         1 BPF       0.200000
     31 H6           3.3830     2.4080    -0.1870 ha         1 BPF       0.214500
     32 HB           1.3420     3.2400    -0.0680 ha         1 BPF       0.162000
     33 H11         -1.3090     3.2560     0.0900 ha         1 BPF       0.162000
     34 HN1          6.0320    -3.0120    -1.0490 hn         1 BPF       0.537000
     35 H8           7.6300     0.5570     1.3610 h1         1 BPF       0.072200
     36 H91          9.3880     1.4350    -0.2090 hc         1 BPF       0.072033
     37 H92         10.1200     0.7540     1.2580 hc         1 BPF       0.072033
     38 H93         10.1490    -0.1750    -0.2550 hc         1 BPF       0.072033
     39 H1          -1.7060    -1.6210     0.0760 ha         1 BPF       0.214500
     40 H4          -3.9680    -2.5490     0.1950 ha         1 BPF       0.200000
     41 H7          -5.6490     1.4900     0.3230 ha         1 BPF       0.200000
     42 H10         -3.4040     2.4480     0.2020 ha         1 BPF       0.214500
     43 HN11        -6.0220    -3.0040     1.0010 hn         1 BPF       0.537000
     44 HN12        -7.5940    -2.5440     0.6010 hn         1 BPF       0.537000
     45 H8'1        -7.6170     0.5850    -1.3880 h1         1 BPF       0.072200
     46 H8'2        -8.4240    -0.9930    -1.3500 h1         1 BPF       0.072200
     47 H9'1       -10.1300    -0.0860     0.2630 hc         1 BPF       0.072033
     48 H9'2        -9.3360     1.5080     0.1970 hc         1 BPF       0.072033
     49 H9'3       -10.1010     0.8330    -1.2560 hc         1 BPF       0.072033
     50 H23          7.6040    -2.5420    -0.6570 hn         1 BPF       0.537000
     51 H24          7.4680     0.2140    -1.2060 hn         1 BPF       0.543000
     52 H25          8.4060    -1.0380     1.3420 h1         1 BPF       0.072200
     53 H26         -7.4460     0.2410     1.1910 hn         1 BPF       0.543000
@<TRIPOS>BOND
     1     1     2 1   
     2     1     6 1   
     3     1     8 2   
     4     2     3 2   
     5     2    28 1   
     6     3     4 1   
     7     3    29 1   
     8     4     5 1   
     9     4    12 2   
    10     5     6 2   
    11     5    30 1   
    12     6    31 1   
    13     7     8 1   
    14     7    11 1   
    15     8     9 1   
    16     9    10 2   
    17     9    32 1   
    18    10    11 1   
    19    10    33 1   
    20    11    17 2   
    21    12    13 1   
    22    12    14 1   
    23    13    34 1   
    24    13    50 1   
    25    14    15 1   
    26    14    51 1   
    27    15    16 1   
    28    15    35 1   
    29    15    52 1   
    30    16    36 1   
    31    16    37 1   
    32    16    38 1   
    33    17    18 1   
    34    17    22 1   
    35    18    19 2   
    36    18    39 1   
    37    19    20 1   
    38    19    40 1   
    39    20    21 1   
    40    20    23 2   
    41    21    22 2   
    42    21    41 1   
    43    22    42 1   
    44    23    24 1   
    45    23    25 1   
    46    24    43 1   
    47    24    44 1   
    48    25    26 1   
    49    25    53 1   
    50    26    27 1   
    51    26    45 1   
    52    26    46 1   
    53    27    47 1   
    54    27    48 1   
    55    27    49 1   
@<TRIPOS>SUBSTRUCTURE
     1 BPF         1 TEMP              0 ****  ****    0 ROOT
