@<TRIPOS>MOLECULE
BPF
   53    55     1     0     0
SMALL
abcg2


@<TRIPOS>ATOM
      1 C1           2.3920     0.8190    -0.1400 cc         1 BPF       0.057000
      2 C2           2.5120    -0.5640    -0.3010 cc         1 BPF      -0.155500
      3 C3           3.7600    -1.1510    -0.4060 cd         1 BPF      -0.124750
      4 C4           4.9110    -0.3710    -0.3380 cd         1 BPF      -0.168500
      5 C5           4.7990     1.0080    -0.1630 cd         1 BPF      -0.124750
      6 C6           3.5540     1.5940    -0.0710 cc         1 BPF      -0.155500
      7 O1           0.0030     0.6780     0.0040 os         1 BPF      -0.233000
      8 CA           1.0970     1.4620    -0.0570 cd         1 BPF       0.064500
      9 CB           0.7150     2.7730    -0.0460 cd         1 BPF      -0.125500
     10 C17         -0.6970     2.7780     0.0250 cc         1 BPF      -0.125500
     11 C16         -1.0870     1.4700     0.0530 cc         1 BPF       0.064500
     12 C7           6.2370    -0.9920    -0.4600 c2         1 BPF       0.488000
     13 N1           6.4120    -1.9580    -1.3330 nv         1 BPF      -0.918000
     14 N2           7.2170    -0.5600     0.2950 nu         1 BPF      -0.761700
     15 C8           8.6000    -1.0130     0.2090 c3         1 BPF       0.190300
     16 C9           9.4900    -0.1450     1.0740 c3         1 BPF      -0.117100
     17 C10         -2.3850     0.8350     0.1410 cd         1 BPF       0.057000
     18 C11         -2.5150    -0.5460     0.3150 cd         1 BPF      -0.155500
     19 C12         -3.7660    -1.1240     0.4190 cc         1 BPF      -0.124750
     20 C13         -4.9130    -0.3380     0.3350 cc         1 BPF      -0.168500
     21 C14         -4.7920     1.0380     0.1480 cc         1 BPF      -0.124750
     22 C15         -3.5420     1.6170     0.0580 cd         1 BPF      -0.155500
     23 C18         -6.2430    -0.9510     0.4520 c2         1 BPF       0.488000
     24 N3          -6.4330    -1.9050     1.3340 nv         1 BPF      -0.918000
     25 N4          -7.2130    -0.5220    -0.3190 nu         1 BPF      -0.761700
     26 C19         -8.5990    -0.9670    -0.2420 c3         1 BPF       0.190300
     27 C20         -9.4760    -0.1030    -1.1240 c3         1 BPF      -0.117100
     28 H2           1.6360    -1.1950    -0.3510 ha         1 BPF       0.214500
     29 H3           3.8270    -2.2250    -0.5210 ha         1 BPF       0.200000
     30 H5           5.6800     1.6360    -0.1260 ha         1 BPF       0.200000
     31 H6           3.4890     2.6670     0.0530 ha         1 BPF       0.214500
     32 HB           1.3620     3.6340    -0.0910 ha         1 BPF       0.162000
     33 H11         -1.3390     3.6430     0.0570 ha         1 BPF       0.162000
     34 HN1          5.6860    -2.1890    -1.9920 hn         1 BPF       0.537000
     35 H8           8.6620    -2.0570     0.5250 h1         1 BPF       0.072200
     36 H91          9.2070    -0.2080     2.1250 hc         1 BPF       0.072033
     37 H92         10.5210    -0.4810     0.9850 hc         1 BPF       0.072033
     38 H93          9.4470     0.8980     0.7630 hc         1 BPF       0.072033
     39 H1          -1.6430    -1.1810     0.3750 ha         1 BPF       0.214500
     40 H4          -3.8410    -2.1970     0.5420 ha         1 BPF       0.200000
     41 H7          -5.6690     1.6710     0.1000 ha         1 BPF       0.200000
     42 H10         -3.4700     2.6870    -0.0750 ha         1 BPF       0.214500
     43 HN11        -5.7140    -2.1340     2.0020 hn         1 BPF       0.537000
     44 HN12        -7.3010    -2.4130     1.4130 hn         1 BPF       0.537000
     45 H8'1        -8.6650    -2.0140    -0.5470 h1         1 BPF       0.072200
     46 H8'2        -8.9270    -0.9020     0.7980 h1         1 BPF       0.072200
     47 H9'1        -9.4290     0.9440    -0.8240 hc         1 BPF       0.072033
     48 H9'2        -9.1850    -0.1800    -2.1710 hc         1 BPF       0.072033
     49 H9'3       -10.5100    -0.4320    -1.0400 hc         1 BPF       0.072033
     50 H23          7.2770    -2.4700    -1.4160 hn         1 BPF       0.537000
     51 H24          6.9780     0.0730     1.0450 hn         1 BPF       0.543000
     52 H25          8.9180    -0.9610    -0.8340 h1         1 BPF       0.072200
     53 H26         -6.9630     0.1000    -1.0730 hn         1 BPF       0.543000
@<TRIPOS>BOND
     1     1     2 1   
     2     1     6 1   
     3     1     8 2   
     4     2     3 2   
     5     2    28 1   
     6     3     4 1   
     7     3    29 1   
     8     4     5 1   
     9     4    12 2   
    10     5     6 2   
    11     5    30 1   
    12     6    31 1   
    13     7     8 1   
    14     7    11 1   
    15     8     9 1   
    16     9    10 2   
    17     9    32 1   
    18    10    11 1   
    19    10    33 1   
    20    11    17 2   
    21    12    13 1   
    22    12    14 1   
    23    13    34 1   
    24    13    50 1   
    25    14    15 1   
    26    14    51 1   
    27    15    16 1   
    28    15    35 1   
    29    15    52 1   
    30    16    36 1   
    31    16    37 1   
    32    16    38 1   
    33    17    18 1   
    34    17    22 1   
    35    18    19 2   
    36    18    39 1   
    37    19    20 1   
    38    19    40 1   
    39    20    21 1   
    40    20    23 2   
    41    21    22 2   
    42    21    41 1   
    43    22    42 1   
    44    23    24 1   
    45    23    25 1   
    46    24    43 1   
    47    24    44 1   
    48    25    26 1   
    49    25    53 1   
    50    26    27 1   
    51    26    45 1   
    52    26    46 1   
    53    27    47 1   
    54    27    48 1   
    55    27    49 1   
@<TRIPOS>SUBSTRUCTURE
     1 BPF         1 TEMP              0 ****  ****    0 ROOT
