@<TRIPOS>MOLECULE
BPG
   39    41     1     0     0
SMALL
No Charge or Current Charge


@<TRIPOS>ATOM
      1 C3           0.6240     0.4910     4.9300 c3         1 BPG       0.164600
      2 O3           0.1870    -0.0970     6.1590 oh         1 BPG      -0.662000
      3 C2           1.0400    -0.6180     3.9420 c3         1 BPG      -0.080400
      4 C12          1.5300    -0.0640     2.5850 c3         1 BPG      -0.100400
      5 C1           1.9360    -1.1740     1.5930 c3         1 BPG       0.085600
      6 N9           2.3850    -0.6430     0.2970 na         1 BPG      -0.170500
      7 C4           1.5920    -0.2360    -0.7450 cc         1 BPG       0.128400
      8 N3           0.2160    -0.2350    -0.8150 nc         1 BPG      -0.691100
      9 C7          -0.2620     0.2390    -1.9520 cd         1 BPG       0.744800
     10 N2          -1.5990     0.2470    -2.1240 nu         1 BPG      -0.911200
     11 N1           0.4810     0.6650    -3.0030 ns         1 BPG      -0.463400
     12 C6           1.8460     0.6940    -3.0130 c          1 BPG       0.522500
     13 O6           2.4770     1.1000    -3.9790 o          1 BPG      -0.511000
     14 C5           2.4350     0.1880    -1.7410 cd         1 BPG       0.098500
     15 N7           3.7580     0.0500    -1.3360 nd         1 BPG      -0.594000
     16 C8           3.6950    -0.4510    -0.1050 cc         1 BPG       0.398400
     17 C04         -4.9600     0.0520     0.4240 ca         1 BPG      -0.132000
     18 C05         -5.0620    -0.3110    -0.9290 ca         1 BPG      -0.082000
     19 C06         -3.9310    -0.2410    -1.7620 ca         1 BPG      -0.147500
     20 C01         -2.6890     0.1790    -1.2520 ca         1 BPG       0.309000
     21 C02         -2.6000     0.5570     0.1030 ca         1 BPG      -0.147500
     22 C03         -3.7290     0.4900     0.9400 ca         1 BPG      -0.082000
     23 H3'1        -0.1830     1.0890     4.4860 h1         1 BPG       0.019200
     24 H3'2         1.4790     1.1560     5.1090 h1         1 BPG       0.019200
     25 H3          -0.0650     0.6430     6.7550 ho         1 BPG       0.445000
     26 H2'1         1.8360    -1.2220     4.3950 hc         1 BPG       0.053700
     27 H2'2         0.1850    -1.2850     3.7720 hc         1 BPG       0.053700
     28 H121         0.7340     0.5440     2.1360 hc         1 BPG       0.058200
     29 H122         2.3860     0.6010     2.7520 hc         1 BPG       0.058200
     30 H1'1         2.7440    -1.7760     2.0280 h1         1 BPG       0.063200
     31 H1'2         1.0800    -1.8390     1.4190 h1         1 BPG       0.063200
     32 HN21        -1.8490     0.2080    -3.1060 hn         1 BPG       0.499000
     33 HN1          0.0260     1.0180    -3.8290 hn         1 BPG       0.321500
     34 H8           4.5370    -0.6910     0.5330 h5         1 BPG       0.060100
     35 H051        -6.0160    -0.6440    -1.3320 ha         1 BPG       0.115500
     36 H061        -4.0220    -0.5250    -2.8070 ha         1 BPG       0.130000
     37 H021        -1.6640     0.9170     0.5150 ha         1 BPG       0.130000
     38 H031        -3.6500     0.7820     1.9850 ha         1 BPG       0.115500
     39 H041        -5.8340     0.0010     1.0690 ha         1 BPG       0.118000
@<TRIPOS>BOND
     1     1     2 1   
     2     1     3 1   
     3     1    23 1   
     4     1    24 1   
     5     2    25 1   
     6     3     4 1   
     7     3    26 1   
     8     3    27 1   
     9     4     5 1   
    10     4    28 1   
    11     4    29 1   
    12     5     6 1   
    13     5    30 1   
    14     5    31 1   
    15     6     7 1   
    16     6    16 1   
    17     7     8 1   
    18     7    14 2   
    19     8     9 2   
    20     9    10 1   
    21     9    11 1   
    22    10    20 1   
    23    10    32 1   
    24    11    12 1   
    25    11    33 1   
    26    12    13 2   
    27    12    14 1   
    28    14    15 1   
    29    15    16 2   
    30    16    34 1   
    31    17    18 ar  
    32    17    22 ar  
    33    17    39 1   
    34    18    19 ar  
    35    18    35 1   
    36    19    20 ar  
    37    19    36 1   
    38    20    21 ar  
    39    21    22 ar  
    40    21    37 1   
    41    22    38 1   
@<TRIPOS>SUBSTRUCTURE
     1 BPG         1 TEMP              0 ****  ****    0 ROOT
