@<TRIPOS>MOLECULE
BPG
   39    41     1     0     0
SMALL
abcg2


@<TRIPOS>ATOM
      1 C3           0.3850     0.7290     4.6250 c3         1 BPG       0.164600
      2 O3          -0.0390     0.2470     5.8820 oh         1 BPG      -0.662000
      3 C2           0.9620    -0.4200     3.8220 c3         1 BPG      -0.080400
      4 C12          1.4510     0.0450     2.4570 c3         1 BPG      -0.100400
      5 C1           1.9690    -1.1170     1.6230 c3         1 BPG       0.085600
      6 N9           2.4170    -0.6960     0.3090 na         1 BPG      -0.170500
      7 C4           1.6270    -0.2890    -0.7160 cc         1 BPG       0.128400
      8 N3           0.2850    -0.2340    -0.7040 nc         1 BPG      -0.691100
      9 C7          -0.2260     0.2010    -1.8190 cd         1 BPG       0.744800
     10 N2          -1.5600     0.3400    -1.9940 nu         1 BPG      -0.911200
     11 N1           0.5380     0.5530    -2.8990 ns         1 BPG      -0.463400
     12 C6           1.9370     0.5060    -2.9730 c          1 BPG       0.522500
     13 O6           2.5140     0.8430    -3.9920 o          1 BPG      -0.511000
     14 C5           2.4890     0.0400    -1.7430 cd         1 BPG       0.098500
     15 N7           3.7890    -0.1540    -1.3610 nd         1 BPG      -0.594000
     16 C8           3.7050    -0.5880    -0.1380 cc         1 BPG       0.398400
     17 C04         -4.8600    -0.1540     0.5520 ca         1 BPG      -0.132000
     18 C05         -5.0030     0.2630    -0.7660 ca         1 BPG      -0.082000
     19 C06         -3.8930     0.4140    -1.5780 ca         1 BPG      -0.147500
     20 C01         -2.6090     0.1490    -1.0890 ca         1 BPG       0.309000
     21 C02         -2.4630    -0.2720     0.2330 ca         1 BPG      -0.147500
     22 C03         -3.5880    -0.4160     1.0360 ca         1 BPG      -0.082000
     23 H3'1        -0.4480     1.1750     4.0650 h1         1 BPG       0.019200
     24 H3'2         1.1470     1.5130     4.7340 h1         1 BPG       0.019200
     25 H3          -0.3860     0.9890     6.3850 ho         1 BPG       0.445000
     26 H2'1         1.7880    -0.8760     4.3770 hc         1 BPG       0.053700
     27 H2'2         0.1980    -1.1940     3.6960 hc         1 BPG       0.053700
     28 H121         0.6350     0.5380     1.9210 hc         1 BPG       0.058200
     29 H122         2.2450     0.7880     2.5750 hc         1 BPG       0.058200
     30 H1'1         2.8120    -1.6010     2.1150 h1         1 BPG       0.063200
     31 H1'2         1.1930    -1.8730     1.4940 h1         1 BPG       0.063200
     32 HN21        -1.8560     0.6550    -2.9040 hn         1 BPG       0.499000
     33 HN1          0.0760     0.8980    -3.7310 hn         1 BPG       0.321500
     34 H8           4.5390    -0.8520     0.4950 h5         1 BPG       0.060100
     35 H051        -5.9840     0.4740    -1.1700 ha         1 BPG       0.115500
     36 H061        -4.0210     0.7410    -2.6030 ha         1 BPG       0.130000
     37 H021        -1.4870    -0.4890     0.6340 ha         1 BPG       0.130000
     38 H031        -3.4570    -0.7430     2.0590 ha         1 BPG       0.115500
     39 H041        -5.7270    -0.2730     1.1880 ha         1 BPG       0.118000
@<TRIPOS>BOND
     1     1     2 1   
     2     1     3 1   
     3     1    23 1   
     4     1    24 1   
     5     2    25 1   
     6     3     4 1   
     7     3    26 1   
     8     3    27 1   
     9     4     5 1   
    10     4    28 1   
    11     4    29 1   
    12     5     6 1   
    13     5    30 1   
    14     5    31 1   
    15     6     7 1   
    16     6    16 1   
    17     7     8 1   
    18     7    14 2   
    19     8     9 2   
    20     9    10 1   
    21     9    11 1   
    22    10    20 1   
    23    10    32 1   
    24    11    12 1   
    25    11    33 1   
    26    12    13 2   
    27    12    14 1   
    28    14    15 1   
    29    15    16 2   
    30    16    34 1   
    31    17    18 ar  
    32    17    22 ar  
    33    17    39 1   
    34    18    19 ar  
    35    18    35 1   
    36    19    20 ar  
    37    19    36 1   
    38    20    21 ar  
    39    21    22 ar  
    40    21    37 1   
    41    22    38 1   
@<TRIPOS>SUBSTRUCTURE
     1 BPG         1 TEMP              0 ****  ****    0 ROOT
