@<TRIPOS>MOLECULE
BPH
  141   146     1     0     0
SMALL
abcg2


@<TRIPOS>ATOM
      1 O1D          5.6420    90.0810  -144.6680 o          1 BPH      -0.478000
      2 CGD          6.4080    90.3220  -145.5640 c          1 BPH       0.609100
      3 O2D          7.3280    91.2710  -145.5240 os         1 BPH      -0.428100
      4 CED          7.4310    92.0400  -144.3250 c3         1 BPH       0.148900
      5 CBD          6.4340    89.5970  -146.8890 c5         1 BPH      -0.192500
      6 CHA          7.8030    89.0810  -147.2910 ce         1 BPH      -0.020400
      7 C4D          8.0770    89.6700  -148.5440 cc         1 BPH      -0.073800
      8 C3D          7.0850    90.5360  -149.0030 cd         1 BPH      -0.261600
      9 CAD          6.0250    90.5810  -148.0280 c          1 BPH       0.632700
     10 OBD          4.9980    91.2240  -148.0170 o          1 BPH      -0.512100
     11 C2D          7.4830    91.0490  -150.2500 cd         1 BPH      -0.027300
     12 CMD          6.7500    92.0180  -151.1090 c3         1 BPH      -0.026800
     13 C1D          8.7330    90.4640  -150.5070 cc         1 BPH      -0.150800
     14 ND           9.0540    89.6360  -149.4510 na         1 BPH      -0.035000
     15 CHD          9.5910    90.6120  -151.6250 ce         1 BPH      -0.110200
     16 C4C         10.8090    90.0220  -151.7940 cf         1 BPH       0.051400
     17 C3C         11.6640    90.1530  -153.0350 c5         1 BPH      -0.043500
     18 CAC         11.1890    89.2390  -154.1730 c3         1 BPH      -0.067400
     19 CBC          9.8480    89.6130  -154.7860 c3         1 BPH      -0.090100
     20 C2C         13.0320    89.7100  -152.5040 c5         1 BPH      -0.148000
     21 CMC         13.9530    90.8780  -152.1520 c3         1 BPH      -0.080100
     22 C1C         12.6410    88.9580  -151.2520 ce         1 BPH       0.479600
     23 NC          11.4130    89.2140  -150.8640 nf         1 BPH      -0.618300
     24 CHC         13.5680    88.1230  -150.5960 ce         1 BPH      -0.342600
     25 C4B         13.4360    87.4430  -149.4100 cd         1 BPH       0.202000
     26 C3B         14.3880    86.5370  -148.8010 cd         1 BPH      -0.200200
     27 CAB         15.7210    86.1470  -149.3140 c          1 BPH       0.598300
     28 CBB         16.5990    87.1890  -149.9540 c3         1 BPH      -0.194100
     29 OBB         16.1050    85.0050  -149.1770 o          1 BPH      -0.513100
     30 C2B         13.8480    86.0590  -147.6380 cc         1 BPH      -0.013200
     31 CMB         14.4210    85.0880  -146.6700 c3         1 BPH      -0.049900
     32 C1B         12.5540    86.6810  -147.4790 cc         1 BPH       0.169000
     33 NB          12.3570    87.4630  -148.5780 na         1 BPH      -0.648000
     34 CHB         11.7140    86.5330  -146.4030 cf         1 BPH      -0.329600
     35 C4A         10.4520    87.1280  -146.2120 cf         1 BPH       0.483600
     36 C3A          9.7060    86.9990  -144.9050 c5         1 BPH      -0.152000
     37 CMA         10.4160    87.7540  -143.7830 c3         1 BPH      -0.081100
     38 C2A          8.3300    87.5900  -145.2630 c5         1 BPH      -0.049500
     39 C1A          8.6120    88.2280  -146.6050 cf         1 BPH       0.102400
     40 NA           9.8260    87.8610  -147.1020 ne         1 BPH      -0.608300
     41 CAA          7.2450    86.5120  -145.3360 c3         1 BPH      -0.056400
     42 CBA          6.8920    86.0030  -143.9440 c3         1 BPH      -0.146400
     43 CGA          6.1640    84.6850  -143.9540 c          1 BPH       0.595100
     44 O1A          5.6970    84.1620  -144.9350 o          1 BPH      -0.484000
     45 O2A          6.1130    84.1500  -142.7400 os         1 BPH      -0.452100
     46 C1           5.6880    82.7750  -142.6370 c3         1 BPH       0.206800
     47 C2           6.6840    81.8560  -143.2770 c2         1 BPH      -0.271200
     48 C3           7.9170    81.6400  -142.8110 c2         1 BPH      -0.077400
     49 C4           8.4350    82.2190  -141.5280 c3         1 BPH      -0.062900
     50 C5           8.9400    80.8340  -143.5650 c3         1 BPH      -0.046200
     51 C6           8.5570    80.3490  -144.9540 c3         1 BPH      -0.077400
     52 C7           9.7460    79.7730  -145.7150 c3         1 BPH      -0.072400
     53 C8           9.3740    79.2520  -147.1060 c3         1 BPH      -0.060700
     54 C9           8.7080    77.8810  -147.0220 c3         1 BPH      -0.088100
     55 C10         10.5720    79.1940  -148.0600 c3         1 BPH      -0.069400
     56 C11         11.3000    80.5170  -148.3060 c3         1 BPH      -0.072400
     57 C12         10.3800    81.6670  -148.7080 c3         1 BPH      -0.076400
     58 C13         11.1000    82.9590  -149.1140 c3         1 BPH      -0.056700
     59 C14         10.1110    84.1230  -149.1330 c3         1 BPH      -0.088100
     60 C15         11.8050    82.7930  -150.4630 c3         1 BPH      -0.072400
     61 C16         12.6260    83.9930  -150.9230 c3         1 BPH      -0.076400
     62 C17         13.4500    83.6790  -152.1660 c3         1 BPH      -0.070400
     63 C18         14.2260    84.8620  -152.7480 c3         1 BPH      -0.056700
     64 C19         13.3020    85.9020  -153.3710 c3         1 BPH      -0.089100
     65 C20         15.2450    84.3820  -153.7760 c3         1 BPH      -0.089100
     66 HED1         8.2320    92.7530  -144.4960 h1         1 BPH       0.048367
     67 HED2         6.5060    92.5760  -144.1160 h1         1 BPH       0.048367
     68 HED3         7.6840    91.4090  -143.4730 h1         1 BPH       0.048367
     69 HBD          5.6920    88.7950  -146.8490 hc         1 BPH       0.114700
     70 HMD1         6.7740    93.0220  -150.6820 hc         1 BPH       0.046700
     71 HMD2         7.1720    92.0780  -152.1100 hc         1 BPH       0.046700
     72 HMD3         5.7000    91.7380  -151.2080 hc         1 BPH       0.046700
     73 HD           9.9130    89.1050  -149.4300 hn         1 BPH       0.389000
     74 HHD          9.2410    91.2630  -152.4160 ha         1 BPH       0.192000
     75 H3C         11.6830    91.1850  -153.3980 hc         1 BPH       0.069700
     76 HAC1        11.9560    89.2650  -154.9530 hc         1 BPH       0.042200
     77 HAC2        11.1580    88.2050  -153.8140 hc         1 BPH       0.042200
     78 HBC1         9.6300    88.9770  -155.6430 hc         1 BPH       0.036033
     79 HBC2         9.0270    89.4990  -154.0790 hc         1 BPH       0.036033
     80 HBC3         9.8470    90.6480  -155.1340 hc         1 BPH       0.036033
     81 H2C         13.5470    89.0530  -153.2100 hc         1 BPH       0.070700
     82 HMC1        14.8840    90.5290  -151.7040 hc         1 BPH       0.040367
     83 HMC2        14.2050    91.4460  -153.0480 hc         1 BPH       0.040367
     84 HMC3        13.4740    91.5580  -151.4450 hc         1 BPH       0.040367
     85 HHC         14.5040    87.9960  -151.1190 ha         1 BPH       0.192000
     86 HBB1        17.6390    86.9920  -149.7010 hc         1 BPH       0.066033
     87 HBB2        16.5170    87.1220  -151.0430 hc         1 BPH       0.066033
     88 HBB3        16.3400    88.2030  -149.6580 hc         1 BPH       0.066033
     89 HMB1        15.5080    85.0880  -146.6870 hc         1 BPH       0.061367
     90 HMB2        14.1010    85.3050  -145.6530 hc         1 BPH       0.061367
     91 HMB3        14.0900    84.0750  -146.9070 hc         1 BPH       0.061367
     92 HB          11.5230    88.0080  -148.7290 hn         1 BPH       0.554000
     93 HHB         12.0660    85.8980  -145.6000 ha         1 BPH       0.195000
     94 H3A          9.6290    85.9450  -144.6210 hc         1 BPH       0.074700
     95 HMA1         9.8540    87.6620  -142.8530 hc         1 BPH       0.041367
     96 HMA2        11.4180    87.3610  -143.6080 hc         1 BPH       0.041367
     97 HMA3        10.5040    88.8160  -144.0190 hc         1 BPH       0.041367
     98 H2A          8.0350    88.3450  -144.5270 hc         1 BPH       0.075700
     99 HAA1         6.3470    86.8960  -145.8230 hc         1 BPH       0.063200
    100 HAA2         7.6090    85.6940  -145.9630 hc         1 BPH       0.063200
    101 HBA1         7.7900    85.8810  -143.3320 hc         1 BPH       0.073200
    102 HBA2         6.2790    86.7410  -143.4160 hc         1 BPH       0.073200
    103 H1C1         5.5920    82.6080  -141.5650 h1         1 BPH       0.063200
    104 H1C2         4.6990    82.6520  -143.0800 h1         1 BPH       0.063200
    105 H2           6.3860    81.4090  -144.2160 ha         1 BPH       0.191000
    106 H4C1         8.9590    81.4530  -140.9520 hc         1 BPH       0.042700
    107 H4C2         9.1650    83.0060  -141.7330 hc         1 BPH       0.042700
    108 H4C3         7.6620    82.6420  -140.8910 hc         1 BPH       0.042700
    109 H5C1         9.8440    81.4520  -143.6390 hc         1 BPH       0.045200
    110 H5C2         9.2400    79.9800  -142.9450 hc         1 BPH       0.045200
    111 H6C1         7.7520    79.6120  -144.8800 hc         1 BPH       0.044700
    112 H6C2         8.1550    81.1850  -145.5350 hc         1 BPH       0.044700
    113 H7C1        10.5000    80.5610  -145.8000 hc         1 BPH       0.037700
    114 H7C2        10.2150    78.9690  -145.1370 hc         1 BPH       0.037700
    115 H8           8.6410    79.9450  -147.5360 hc         1 BPH       0.048700
    116 H9C1         8.3780    77.5390  -148.0050 hc         1 BPH       0.032367
    117 H9C2         9.4040    77.1360  -146.6290 hc         1 BPH       0.032367
    118 H9C3         7.8330    77.8910  -146.3690 hc         1 BPH       0.032367
    119 H101        11.2920    78.4570  -147.6870 hc         1 BPH       0.037200
    120 H102        10.2190    78.8080  -149.0220 hc         1 BPH       0.037200
    121 H111        11.8640    80.8130  -147.4160 hc         1 BPH       0.035700
    122 H112        12.0500    80.3450  -149.0820 hc         1 BPH       0.035700
    123 H121         9.7320    81.3500  -149.5350 hc         1 BPH       0.040700
    124 H122         9.7090    81.8910  -147.8730 hc         1 BPH       0.040700
    125 H13         11.8620    83.1740  -148.3520 hc         1 BPH       0.038700
    126 H141        10.5990    85.0790  -149.3270 hc         1 BPH       0.033700
    127 H142         9.3520    83.9740  -149.9060 hc         1 BPH       0.033700
    128 H143         9.5940    84.2130  -148.1750 hc         1 BPH       0.033700
    129 H151        12.4630    81.9200  -150.4190 hc         1 BPH       0.036700
    130 H152        11.0500    82.5630  -151.2250 hc         1 BPH       0.036700
    131 H161        11.9630    84.8410  -151.1130 hc         1 BPH       0.039700
    132 H162        13.2970    84.3080  -150.1170 hc         1 BPH       0.039700
    133 H171        14.1570    82.8780  -151.9190 hc         1 BPH       0.038200
    134 H172        12.7970    83.2690  -152.9470 hc         1 BPH       0.038200
    135 H18         14.7780    85.3410  -151.9300 hc         1 BPH       0.035700
    136 H191        13.8700    86.7510  -153.7560 hc         1 BPH       0.031867
    137 H192        12.7440    85.4720  -154.2080 hc         1 BPH       0.031867
    138 H193        12.5790    86.2990  -152.6580 hc         1 BPH       0.031867
    139 H201        15.8200    85.2140  -154.1870 hc         1 BPH       0.031867
    140 H202        15.9510    83.6740  -153.3370 hc         1 BPH       0.031867
    141 H203        14.7490    83.8790  -154.6110 hc         1 BPH       0.031867
@<TRIPOS>BOND
     1     1     2 2   
     2     2     3 1   
     3     2     5 1   
     4     3     4 1   
     5     4    66 1   
     6     4    67 1   
     7     4    68 1   
     8     5     6 1   
     9     5     9 1   
    10     5    69 1   
    11     6     7 1   
    12     6    39 2   
    13     7     8 2   
    14     7    14 1   
    15     8     9 1   
    16     8    11 1   
    17     9    10 2   
    18    11    12 1   
    19    11    13 2   
    20    12    70 1   
    21    12    71 1   
    22    12    72 1   
    23    13    14 1   
    24    13    15 1   
    25    14    73 1   
    26    15    16 2   
    27    15    74 1   
    28    16    17 1   
    29    16    23 1   
    30    17    18 1   
    31    17    20 1   
    32    17    75 1   
    33    18    19 1   
    34    18    76 1   
    35    18    77 1   
    36    19    78 1   
    37    19    79 1   
    38    19    80 1   
    39    20    21 1   
    40    20    22 1   
    41    20    81 1   
    42    21    82 1   
    43    21    83 1   
    44    21    84 1   
    45    22    23 2   
    46    22    24 1   
    47    24    25 2   
    48    24    85 1   
    49    25    26 1   
    50    25    33 1   
    51    26    27 1   
    52    26    30 2   
    53    27    28 1   
    54    27    29 2   
    55    28    86 1   
    56    28    87 1   
    57    28    88 1   
    58    30    31 1   
    59    30    32 1   
    60    31    89 1   
    61    31    90 1   
    62    31    91 1   
    63    32    33 1   
    64    32    34 2   
    65    33    92 1   
    66    34    35 1   
    67    34    93 1   
    68    35    36 1   
    69    35    40 2   
    70    36    37 1   
    71    36    38 1   
    72    36    94 1   
    73    37    95 1   
    74    37    96 1   
    75    37    97 1   
    76    38    39 1   
    77    38    41 1   
    78    38    98 1   
    79    39    40 1   
    80    41    42 1   
    81    41    99 1   
    82    41   100 1   
    83    42    43 1   
    84    42   101 1   
    85    42   102 1   
    86    43    44 2   
    87    43    45 1   
    88    45    46 1   
    89    46    47 1   
    90    46   103 1   
    91    46   104 1   
    92    47    48 2   
    93    47   105 1   
    94    48    49 1   
    95    48    50 1   
    96    49   106 1   
    97    49   107 1   
    98    49   108 1   
    99    50    51 1   
   100    50   109 1   
   101    50   110 1   
   102    51    52 1   
   103    51   111 1   
   104    51   112 1   
   105    52    53 1   
   106    52   113 1   
   107    52   114 1   
   108    53    54 1   
   109    53    55 1   
   110    53   115 1   
   111    54   116 1   
   112    54   117 1   
   113    54   118 1   
   114    55    56 1   
   115    55   119 1   
   116    55   120 1   
   117    56    57 1   
   118    56   121 1   
   119    56   122 1   
   120    57    58 1   
   121    57   123 1   
   122    57   124 1   
   123    58    59 1   
   124    58    60 1   
   125    58   125 1   
   126    59   126 1   
   127    59   127 1   
   128    59   128 1   
   129    60    61 1   
   130    60   129 1   
   131    60   130 1   
   132    61    62 1   
   133    61   131 1   
   134    61   132 1   
   135    62    63 1   
   136    62   133 1   
   137    62   134 1   
   138    63    64 1   
   139    63    65 1   
   140    63   135 1   
   141    64   136 1   
   142    64   137 1   
   143    64   138 1   
   144    65   139 1   
   145    65   140 1   
   146    65   141 1   
@<TRIPOS>SUBSTRUCTURE
     1 BPH         1 TEMP              0 ****  ****    0 ROOT
