@<TRIPOS>MOLECULE
BPH
  141   146     1     0     0
SMALL
No Charge or Current Charge


@<TRIPOS>ATOM
      1 O1D          6.1370    90.0120  -144.5700 o          1 BPH      -0.478000
      2 CGD          6.6510    90.2260  -145.6590 c          1 BPH       0.609100
      3 O2D          7.3250    91.3800  -145.9660 os         1 BPH      -0.428100
      4 CED          7.5190    92.3530  -144.9230 c3         1 BPH       0.148900
      5 CBD          6.5020    89.3250  -146.8850 c5         1 BPH      -0.192500
      6 CHA          7.8340    88.7810  -147.4330 ce         1 BPH      -0.020400
      7 C4D          8.0200    89.4380  -148.6590 cc         1 BPH      -0.073800
      8 C3D          7.0690    90.2820  -149.0270 cd         1 BPH      -0.261600
      9 CAD          5.9770    90.2990  -148.0110 c          1 BPH       0.632700
     10 OBD          4.8900    90.8540  -148.1130 o          1 BPH      -0.512100
     11 C2D          7.4160    90.8710  -150.2730 cd         1 BPH      -0.027300
     12 CMD          6.6140    91.8900  -151.0370 c3         1 BPH      -0.026800
     13 C1D          8.6580    90.3450  -150.6140 cc         1 BPH      -0.150800
     14 ND           8.9920    89.4430  -149.6120 na         1 BPH      -0.035000
     15 CHD          9.5880    90.5740  -151.7130 ce         1 BPH      -0.110200
     16 C4C         10.8190    89.9810  -151.8060 cf         1 BPH       0.051400
     17 C3C         11.7640    90.3400  -152.9850 c5         1 BPH      -0.043500
     18 CAC         11.4230    89.5300  -154.2670 c3         1 BPH      -0.067400
     19 CBC         10.0730    89.8700  -154.9310 c3         1 BPH      -0.090100
     20 C2C         13.1860    89.9670  -152.4010 c5         1 BPH      -0.148000
     21 CMC         14.0200    91.1870  -151.9420 c3         1 BPH      -0.080100
     22 C1C         12.7430    89.0780  -151.2410 ce         1 BPH       0.479600
     23 NC          11.4900    89.1280  -150.9220 nf         1 BPH      -0.618300
     24 CHC         13.7820    88.2670  -150.5890 ce         1 BPH      -0.342600
     25 C4B         13.6940    87.4790  -149.4600 cd         1 BPH       0.202000
     26 C3B         14.7010    86.6130  -148.8810 cd         1 BPH      -0.200200
     27 CAB         16.1390    86.3570  -149.2640 c          1 BPH       0.598300
     28 CBB         16.8480    87.1600  -150.3550 c3         1 BPH      -0.194100
     29 OBB         16.8160    85.5130  -148.6900 o          1 BPH      -0.513100
     30 C2B         14.0950    86.0000  -147.7830 cc         1 BPH      -0.013200
     31 CMB         14.6890    84.9760  -146.8350 c3         1 BPH      -0.049900
     32 C1B         12.7600    86.5160  -147.6270 cc         1 BPH       0.169000
     33 NB          12.5750    87.3740  -148.6760 na         1 BPH      -0.648000
     34 CHB         11.8460    86.2860  -146.6330 cf         1 BPH      -0.329600
     35 C4A         10.5390    86.8840  -146.4110 cf         1 BPH       0.483600
     36 C3A          9.8220    86.8170  -145.0450 c5         1 BPH      -0.152000
     37 CMA         10.5330    87.7050  -143.9950 c3         1 BPH      -0.081100
     38 C2A          8.3890    87.3150  -145.4260 c5         1 BPH      -0.049500
     39 C1A          8.6750    87.8830  -146.8360 cf         1 BPH       0.102400
     40 NA           9.8320    87.5090  -147.2980 ne         1 BPH      -0.608300
     41 CAA          7.3290    86.1820  -145.4310 c3         1 BPH      -0.056400
     42 CBA          6.8770    85.7750  -144.0050 c3         1 BPH      -0.146400
     43 CGA          6.0850    84.4690  -143.9070 c          1 BPH       0.595100
     44 O1A          5.5300    83.9280  -144.8540 o          1 BPH      -0.484000
     45 O2A          6.0520    84.0110  -142.6140 os         1 BPH      -0.452100
     46 C1           5.5380    82.6930  -142.3600 c3         1 BPH       0.206800
     47 C2           6.5360    81.7100  -142.9410 c2         1 BPH      -0.271200
     48 C3           7.8150    81.5240  -142.5480 c2         1 BPH      -0.077400
     49 C4           8.4500    82.2300  -141.3580 c3         1 BPH      -0.062900
     50 C5           8.8290    80.6480  -143.2820 c3         1 BPH      -0.046200
     51 C6           8.4090    80.1920  -144.6990 c3         1 BPH      -0.077400
     52 C7           9.5890    79.6680  -145.5500 c3         1 BPH      -0.072400
     53 C8           9.1750    79.2200  -146.9820 c3         1 BPH      -0.060700
     54 C9           8.4330    77.8610  -146.9630 c3         1 BPH      -0.088100
     55 C10         10.3690    79.1760  -147.9810 c3         1 BPH      -0.069400
     56 C11         11.1220    80.5120  -148.2310 c3         1 BPH      -0.072400
     57 C12         10.2060    81.7120  -148.5970 c3         1 BPH      -0.076400
     58 C13         10.9370    83.0230  -149.0070 c3         1 BPH      -0.056700
     59 C14          9.9280    84.2000  -149.0430 c3         1 BPH      -0.088100
     60 C15         11.7090    82.8610  -150.3500 c3         1 BPH      -0.072400
     61 C16         12.4370    84.1290  -150.8520 c3         1 BPH      -0.076400
     62 C17         13.3430    83.8510  -152.0750 c3         1 BPH      -0.070400
     63 C18         14.0680    85.1020  -152.6360 c3         1 BPH      -0.056700
     64 C19         13.0980    86.1130  -153.2920 c3         1 BPH      -0.089100
     65 C20         15.1890    84.7060  -153.6230 c3         1 BPH      -0.089100
     66 HED1         8.0770    93.2170  -145.3070 h1         1 BPH       0.048367
     67 HED2         6.5560    92.7120  -144.5390 h1         1 BPH       0.048367
     68 HED3         8.0890    91.9230  -144.0890 h1         1 BPH       0.048367
     69 HBD          5.7460    88.5670  -146.6720 hc         1 BPH       0.114700
     70 HMD1         7.0270    92.8950  -150.8970 hc         1 BPH       0.046700
     71 HMD2         6.6180    91.6690  -152.1100 hc         1 BPH       0.046700
     72 HMD3         5.5690    91.9060  -150.7040 hc         1 BPH       0.046700
     73 HD           9.8470    88.9000  -149.5980 hn         1 BPH       0.389000
     74 HHD          9.2610    91.2700  -152.4850 ha         1 BPH       0.192000
     75 H3C         11.7010    91.4040  -153.2460 hc         1 BPH       0.069700
     76 HAC1        12.2110    89.6960  -155.0120 hc         1 BPH       0.042200
     77 HAC2        11.4370    88.4560  -154.0440 hc         1 BPH       0.042200
     78 HBC1         9.9750    89.3370  -155.8840 hc         1 BPH       0.036033
     79 HBC2         9.2340    89.5700  -154.2930 hc         1 BPH       0.036033
     80 HBC3         9.9970    90.9450  -155.1310 hc         1 BPH       0.036033
     81 H2C         13.7950    89.4080  -153.1200 hc         1 BPH       0.070700
     82 HMC1        14.9650    90.8720  -151.4840 hc         1 BPH       0.040367
     83 HMC2        14.2610    91.8390  -152.7900 hc         1 BPH       0.040367
     84 HMC3        13.4730    91.7850  -151.2030 hc         1 BPH       0.040367
     85 HHC         14.7130    88.2700  -151.1280 ha         1 BPH       0.192000
     86 HBB1        17.9210    86.9420  -150.3930 hc         1 BPH       0.066033
     87 HBB2        16.3920    86.9390  -151.3240 hc         1 BPH       0.066033
     88 HBB3        16.6690    88.2280  -150.1980 hc         1 BPH       0.066033
     89 HMB1        15.4930    85.4200  -146.2360 hc         1 BPH       0.061367
     90 HMB2        13.9600    84.5470  -146.1430 hc         1 BPH       0.061367
     91 HMB3        15.1050    84.1280  -147.3910 hc         1 BPH       0.061367
     92 HB          11.7150    87.8810  -148.8520 hn         1 BPH       0.554000
     93 HHB         12.1720    85.6320  -145.8330 ha         1 BPH       0.195000
     94 H3A          9.8220    85.7920  -144.6580 hc         1 BPH       0.074700
     95 HMA1         9.9940    87.6920  -143.0400 hc         1 BPH       0.041367
     96 HMA2        11.5540    87.3540  -143.8060 hc         1 BPH       0.041367
     97 HMA3        10.5950    88.7480  -144.3320 hc         1 BPH       0.041367
     98 H2A          8.0390    88.0920  -144.7390 hc         1 BPH       0.075700
     99 HAA1         6.4430    86.4810  -146.0030 hc         1 BPH       0.063200
    100 HAA2         7.7370    85.3040  -145.9490 hc         1 BPH       0.063200
    101 HBA1         7.7220    85.6990  -143.3100 hc         1 BPH       0.073200
    102 HBA2         6.2760    86.5620  -143.5360 hc         1 BPH       0.073200
    103 H1C1         5.4340    82.5230  -141.2810 h1         1 BPH       0.063200
    104 H1C2         4.5470    82.5570  -142.8150 h1         1 BPH       0.063200
    105 H2           6.1320    81.1830  -143.8040 ha         1 BPH       0.191000
    106 H4C1         8.8830    81.5040  -140.6590 hc         1 BPH       0.042700
    107 H4C2         9.2540    82.9010  -141.6820 hc         1 BPH       0.042700
    108 H4C3         7.7340    82.8330  -140.7890 hc         1 BPH       0.042700
    109 H5C1         9.7670    81.2100  -143.3820 hc         1 BPH       0.045200
    110 H5C2         9.0700    79.7650  -142.6770 hc         1 BPH       0.045200
    111 H6C1         7.6310    79.4250  -144.6110 hc         1 BPH       0.044700
    112 H6C2         7.9700    81.0440  -145.2330 hc         1 BPH       0.044700
    113 H7C1        10.3280    80.4740  -145.6110 hc         1 BPH       0.037700
    114 H7C2        10.0810    78.8360  -145.0320 hc         1 BPH       0.037700
    115 H8           8.4560    79.9530  -147.3680 hc         1 BPH       0.048700
    116 H9C1         8.1270    77.5720  -147.9760 hc         1 BPH       0.032367
    117 H9C2         9.0790    77.0690  -146.5640 hc         1 BPH       0.032367
    118 H9C3         7.5280    77.9080  -146.3470 hc         1 BPH       0.032367
    119 H101        11.0930    78.4260  -147.6390 hc         1 BPH       0.037200
    120 H102         9.9960    78.8190  -148.9490 hc         1 BPH       0.037200
    121 H111        11.7260    80.7730  -147.3540 hc         1 BPH       0.035700
    122 H112        11.8360    80.3290  -149.0420 hc         1 BPH       0.035700
    123 H121         9.5270    81.4130  -149.4070 hc         1 BPH       0.040700
    124 H122         9.5740    81.9330  -147.7290 hc         1 BPH       0.040700
    125 H13         11.6700    83.2540  -148.2230 hc         1 BPH       0.038700
    126 H141        10.4380    85.1570  -149.1940 hc         1 BPH       0.033700
    127 H142         9.1980    84.0650  -149.8500 hc         1 BPH       0.033700
    128 H143         9.3810    84.2730  -148.0950 hc         1 BPH       0.033700
    129 H151        12.4610    82.0730  -150.2370 hc         1 BPH       0.036700
    130 H152        11.0140    82.5230  -151.1290 hc         1 BPH       0.036700
    131 H161        11.6940    84.8900  -151.1140 hc         1 BPH       0.039700
    132 H162        13.0490    84.5370  -150.0400 hc         1 BPH       0.039700
    133 H171        14.0950    83.1090  -151.7800 hc         1 BPH       0.038200
    134 H172        12.7470    83.3910  -152.8730 hc         1 BPH       0.038200
    135 H18         14.5470    85.6070  -151.7910 hc         1 BPH       0.035700
    136 H191        13.6490    86.9740  -153.6880 hc         1 BPH       0.031867
    137 H192        12.5510    85.6480  -154.1220 hc         1 BPH       0.031867
    138 H193        12.3670    86.4930  -152.5700 hc         1 BPH       0.031867
    139 H201        15.7270    85.5940  -153.9750 hc         1 BPH       0.031867
    140 H202        15.9160    84.0430  -153.1380 hc         1 BPH       0.031867
    141 H203        14.7750    84.1850  -154.4950 hc         1 BPH       0.031867
@<TRIPOS>BOND
     1     1     2 2   
     2     2     3 1   
     3     2     5 1   
     4     3     4 1   
     5     4    66 1   
     6     4    67 1   
     7     4    68 1   
     8     5     6 1   
     9     5     9 1   
    10     5    69 1   
    11     6     7 1   
    12     6    39 2   
    13     7     8 2   
    14     7    14 1   
    15     8     9 1   
    16     8    11 1   
    17     9    10 2   
    18    11    12 1   
    19    11    13 2   
    20    12    70 1   
    21    12    71 1   
    22    12    72 1   
    23    13    14 1   
    24    13    15 1   
    25    14    73 1   
    26    15    16 2   
    27    15    74 1   
    28    16    17 1   
    29    16    23 1   
    30    17    18 1   
    31    17    20 1   
    32    17    75 1   
    33    18    19 1   
    34    18    76 1   
    35    18    77 1   
    36    19    78 1   
    37    19    79 1   
    38    19    80 1   
    39    20    21 1   
    40    20    22 1   
    41    20    81 1   
    42    21    82 1   
    43    21    83 1   
    44    21    84 1   
    45    22    23 2   
    46    22    24 1   
    47    24    25 2   
    48    24    85 1   
    49    25    26 1   
    50    25    33 1   
    51    26    27 1   
    52    26    30 2   
    53    27    28 1   
    54    27    29 2   
    55    28    86 1   
    56    28    87 1   
    57    28    88 1   
    58    30    31 1   
    59    30    32 1   
    60    31    89 1   
    61    31    90 1   
    62    31    91 1   
    63    32    33 1   
    64    32    34 2   
    65    33    92 1   
    66    34    35 1   
    67    34    93 1   
    68    35    36 1   
    69    35    40 2   
    70    36    37 1   
    71    36    38 1   
    72    36    94 1   
    73    37    95 1   
    74    37    96 1   
    75    37    97 1   
    76    38    39 1   
    77    38    41 1   
    78    38    98 1   
    79    39    40 1   
    80    41    42 1   
    81    41    99 1   
    82    41   100 1   
    83    42    43 1   
    84    42   101 1   
    85    42   102 1   
    86    43    44 2   
    87    43    45 1   
    88    45    46 1   
    89    46    47 1   
    90    46   103 1   
    91    46   104 1   
    92    47    48 2   
    93    47   105 1   
    94    48    49 1   
    95    48    50 1   
    96    49   106 1   
    97    49   107 1   
    98    49   108 1   
    99    50    51 1   
   100    50   109 1   
   101    50   110 1   
   102    51    52 1   
   103    51   111 1   
   104    51   112 1   
   105    52    53 1   
   106    52   113 1   
   107    52   114 1   
   108    53    54 1   
   109    53    55 1   
   110    53   115 1   
   111    54   116 1   
   112    54   117 1   
   113    54   118 1   
   114    55    56 1   
   115    55   119 1   
   116    55   120 1   
   117    56    57 1   
   118    56   121 1   
   119    56   122 1   
   120    57    58 1   
   121    57   123 1   
   122    57   124 1   
   123    58    59 1   
   124    58    60 1   
   125    58   125 1   
   126    59   126 1   
   127    59   127 1   
   128    59   128 1   
   129    60    61 1   
   130    60   129 1   
   131    60   130 1   
   132    61    62 1   
   133    61   131 1   
   134    61   132 1   
   135    62    63 1   
   136    62   133 1   
   137    62   134 1   
   138    63    64 1   
   139    63    65 1   
   140    63   135 1   
   141    64   136 1   
   142    64   137 1   
   143    64   138 1   
   144    65   139 1   
   145    65   140 1   
   146    65   141 1   
@<TRIPOS>SUBSTRUCTURE
     1 BPH         1 TEMP              0 ****  ****    0 ROOT
