@<TRIPOS>MOLECULE
BPI
   37    40     1     0     0
SMALL
No Charge or Current Charge


@<TRIPOS>ATOM
      1 C1           1.3160     0.1940    -1.0820 c6         1 BPI      -0.073100
      2 C2           1.5030     0.6240    -2.5570 c6         1 BPI       0.179300
      3 O2           2.9030     0.5970    -2.9090 oh         1 BPI      -0.708000
      4 C3           0.6560    -0.2900    -3.4880 c6         1 BPI       0.182300
      5 O3           1.0150    -1.6870    -3.3460 oh         1 BPI      -0.640000
      6 C4          -0.8390    -0.0550    -3.1350 c6         1 BPI       0.183600
      7 O4          -1.2680     1.2310    -3.6120 oh         1 BPI      -0.719000
      8 C5          -2.4960    -0.2380    -1.2860 ca         1 BPI      -0.109000
      9 C6          -2.8890    -0.1900     0.0430 ca         1 BPI      -0.103000
     10 C7          -2.4480     0.0220     2.3660 ca         1 BPI      -0.102000
     11 C8          -1.5920     0.1500     3.4500 ca         1 BPI      -0.092000
     12 C9           0.5940     0.1730     4.4120 ca         1 BPI      -0.100000
     13 C10          1.9820     0.0570     4.3220 ca         1 BPI      -0.105000
     14 C11          2.5620    -0.1700     3.0750 ca         1 BPI      -0.109000
     15 C12          1.7660    -0.2380     1.9190 ca         1 BPI      -0.106000
     16 C13         -0.1420    -0.0220    -0.6070 ca         1 BPI      -0.012300
     17 C14         -1.1430    -0.1240    -1.6260 ca         1 BPI      -0.124300
     18 C15         -1.9370    -0.0800     1.0640 ca         1 BPI      -0.030000
     19 C16         -0.5320    -0.0620     0.7930 ca         1 BPI      -0.012000
     20 C17          0.3520    -0.0530     1.9510 ca         1 BPI      -0.013000
     21 C18         -0.2100     0.0980     3.2570 ca         1 BPI      -0.040000
     22 H11A         1.8600    -0.7510    -0.9610 hc         1 BPI       0.066700
     23 H12A         1.7950     0.9620    -0.4610 hc         1 BPI       0.066700
     24 H2           1.1270     1.6540    -2.6590 h1         1 BPI       0.054700
     25 HO2          3.3490     1.2850    -2.3640 ho         1 BPI       0.501000
     26 H3           0.8190     0.0310    -4.5280 h1         1 BPI       0.062700
     27 HO3          0.5890    -2.1660    -4.0900 ho         1 BPI       0.441000
     28 H4          -1.4290    -0.8370    -3.6380 h1         1 BPI       0.035700
     29 HO4         -2.1340     1.4090    -3.1790 ho         1 BPI       0.510000
     30 H5          -3.2560    -0.3220    -2.0600 ha         1 BPI       0.107000
     31 H6          -3.9500    -0.2300     0.2800 ha         1 BPI       0.116000
     32 H7          -3.5220     0.0250     2.5390 ha         1 BPI       0.114000
     33 H8          -2.0100     0.2500     4.4500 ha         1 BPI       0.115000
     34 H9           0.1390     0.3070     5.3910 ha         1 BPI       0.113000
     35 H10          2.5990     0.1070     5.2170 ha         1 BPI       0.115000
     36 H11          3.6380    -0.3110     2.9990 ha         1 BPI       0.114000
     37 H12          2.3100    -0.4960     1.0300 ha         1 BPI       0.120000
@<TRIPOS>BOND
     1     1     2 1   
     2     1    16 1   
     3     1    22 1   
     4     1    23 1   
     5     2     3 1   
     6     2     4 1   
     7     2    24 1   
     8     3    25 1   
     9     4     5 1   
    10     4     6 1   
    11     4    26 1   
    12     5    27 1   
    13     6     7 1   
    14     6    17 1   
    15     6    28 1   
    16     7    29 1   
    17     8     9 ar  
    18     8    17 ar  
    19     8    30 1   
    20     9    18 ar  
    21     9    31 1   
    22    10    11 ar  
    23    10    18 ar  
    24    10    32 1   
    25    11    21 ar  
    26    11    33 1   
    27    12    13 ar  
    28    12    21 ar  
    29    12    34 1   
    30    13    14 ar  
    31    13    35 1   
    32    14    15 ar  
    33    14    36 1   
    34    15    20 ar  
    35    15    37 1   
    36    16    17 ar  
    37    16    19 ar  
    38    18    19 ar  
    39    19    20 ar  
    40    20    21 ar  
@<TRIPOS>SUBSTRUCTURE
     1 BPI         1 TEMP              0 ****  ****    0 ROOT
