@<TRIPOS>MOLECULE
BPI
   37    40     1     0     0
SMALL
bcc


@<TRIPOS>ATOM
      1 C1           1.2760     0.1970    -1.0150 c6         1 BPI      -0.073100
      2 C2           1.4440     0.6860    -2.4490 c6         1 BPI       0.156100
      3 O2           2.8020     0.6910    -2.8270 oh         1 BPI      -0.585800
      4 C3           0.6750    -0.2070    -3.3990 c6         1 BPI       0.159100
      5 O3           1.1030    -1.5330    -3.2150 oh         1 BPI      -0.577800
      6 C4          -0.8070    -0.0590    -3.0810 c6         1 BPI       0.160400
      7 O4          -1.2090     1.1990    -3.5890 oh         1 BPI      -0.596800
      8 C5          -2.4710    -0.3210    -1.2810 ca         1 BPI      -0.127000
      9 C6          -2.8880    -0.2490     0.0160 ca         1 BPI      -0.121000
     10 C7          -2.4410     0.0850     2.3810 ca         1 BPI      -0.120000
     11 C8          -1.5960     0.2710     3.4130 ca         1 BPI      -0.110000
     12 C9           0.6640     0.2370     4.3330 ca         1 BPI      -0.118000
     13 C10          2.0130     0.0150     4.2170 ca         1 BPI      -0.123000
     14 C11          2.5350    -0.3200     2.9650 ca         1 BPI      -0.127000
     15 C12          1.7230    -0.3660     1.8540 ca         1 BPI      -0.124000
     16 C13         -0.1560    -0.0420    -0.6040 ca         1 BPI      -0.012300
     17 C14         -1.1140    -0.1690    -1.6020 ca         1 BPI      -0.124300
     18 C15         -1.9510    -0.0960     1.0500 ca         1 BPI      -0.030000
     19 C16         -0.5610    -0.0830     0.7690 ca         1 BPI      -0.012000
     20 C17          0.3420    -0.0760     1.9180 ca         1 BPI      -0.013000
     21 C18         -0.1860     0.1660     3.2140 ca         1 BPI      -0.040000
     22 H11A         1.8600    -0.7220    -0.9160 hc         1 BPI       0.066700
     23 H12A         1.7320     0.9330    -0.3490 hc         1 BPI       0.066700
     24 H2           1.0180     1.6940    -2.5350 h1         1 BPI       0.054700
     25 HO2          3.2570     1.3580    -2.3040 ho         1 BPI       0.402000
     26 H3           0.8430     0.1250    -4.4340 h1         1 BPI       0.062700
     27 HO3          0.6500    -2.0910    -3.8550 ho         1 BPI       0.402000
     28 H4          -1.3530    -0.8630    -3.5990 h1         1 BPI       0.035700
     29 HO4         -2.1480     1.3220    -3.4160 ho         1 BPI       0.411000
     30 H5          -3.1980    -0.4660    -2.0730 ha         1 BPI       0.125000
     31 H6          -3.9420    -0.3000     0.2610 ha         1 BPI       0.134000
     32 H7          -3.5130     0.1030     2.5320 ha         1 BPI       0.132000
     33 H8          -1.9700     0.4560     4.4120 ha         1 BPI       0.133000
     34 H9           0.2270     0.4510     5.3010 ha         1 BPI       0.131000
     35 H10          2.6570     0.0660     5.0840 ha         1 BPI       0.133000
     36 H11          3.5860    -0.5560     2.8610 ha         1 BPI       0.132000
     37 H12          2.1750    -0.6800     0.9320 ha         1 BPI       0.138000
@<TRIPOS>BOND
     1     1     2 1   
     2     1    16 1   
     3     1    22 1   
     4     1    23 1   
     5     2     3 1   
     6     2     4 1   
     7     2    24 1   
     8     3    25 1   
     9     4     5 1   
    10     4     6 1   
    11     4    26 1   
    12     5    27 1   
    13     6     7 1   
    14     6    17 1   
    15     6    28 1   
    16     7    29 1   
    17     8     9 ar  
    18     8    17 ar  
    19     8    30 1   
    20     9    18 ar  
    21     9    31 1   
    22    10    11 ar  
    23    10    18 ar  
    24    10    32 1   
    25    11    21 ar  
    26    11    33 1   
    27    12    13 ar  
    28    12    21 ar  
    29    12    34 1   
    30    13    14 ar  
    31    13    35 1   
    32    14    15 ar  
    33    14    36 1   
    34    15    20 ar  
    35    15    37 1   
    36    16    17 ar  
    37    16    19 ar  
    38    18    19 ar  
    39    19    20 ar  
    40    20    21 ar  
@<TRIPOS>SUBSTRUCTURE
     1 BPI         1 TEMP              0 ****  ****    0 ROOT
