@<TRIPOS>MOLECULE
BPJ
   37    40     1     0     0
SMALL
No Charge or Current Charge


@<TRIPOS>ATOM
      1 C1          -1.4520    -0.0120    -0.9180 c6         1 BPJ      -0.077100
      2 C2          -1.7560    -0.5280    -2.3430 c6         1 BPJ       0.177300
      3 O2          -1.4840    -1.9430    -2.4430 oh         1 BPJ      -0.706000
      4 C3          -0.9220     0.3160    -3.3420 c6         1 BPJ       0.181300
      5 O3          -1.2570     0.0450    -4.7190 oh         1 BPJ      -0.648000
      6 C4           0.5900     0.0730    -3.0900 c6         1 BPJ       0.181600
      7 O4           1.3680     1.0400    -3.8250 oh         1 BPJ      -0.728000
      8 C5           2.3630    -0.0760    -1.3270 ca         1 BPJ      -0.097000
      9 C6           2.8110    -0.2210    -0.0210 ca         1 BPJ      -0.099000
     10 C7           2.4490    -0.3920     2.3250 ca         1 BPJ      -0.097000
     11 C8           1.6310    -0.3910     3.4480 ca         1 BPJ      -0.098000
     12 C9          -0.4890    -0.0350     4.5040 ca         1 BPJ      -0.099000
     13 C10         -1.8330     0.3410     4.4690 ca         1 BPJ      -0.106000
     14 C11         -2.4070     0.6980     3.2470 ca         1 BPJ      -0.110000
     15 C12         -1.6560     0.6330     2.0620 ca         1 BPJ      -0.108000
     16 C13          0.0460     0.0670    -0.5270 ca         1 BPJ      -0.043300
     17 C14          0.9950     0.0570    -1.5980 ca         1 BPJ      -0.084300
     18 C15          1.9080    -0.1810     1.0490 ca         1 BPJ      -0.036000
     19 C16          0.5100     0.0390     0.8470 ca         1 BPJ      -0.008000
     20 C17         -0.3060     0.1760     2.0400 ca         1 BPJ      -0.015000
     21 C18          0.2710    -0.0920     3.3180 ca         1 BPJ      -0.037000
     22 H11A        -1.8810     0.9970    -0.8640 hc         1 BPJ       0.059700
     23 H12A        -1.9980    -0.6530    -0.2130 hc         1 BPJ       0.059700
     24 H2          -2.8210    -0.3440    -2.5500 h1         1 BPJ       0.048700
     25 HO2         -2.1670    -2.4030    -1.9030 ho         1 BPJ       0.504000
     26 H3          -1.1310     1.3750    -3.1280 h1         1 BPJ       0.049700
     27 HO3         -0.4940     0.3850    -5.2380 ho         1 BPJ       0.453000
     28 H4           0.8170    -0.9330    -3.4740 h1         1 BPJ       0.068700
     29 HO4          1.4690     1.8220    -3.2360 ho         1 BPJ       0.506000
     30 H5           3.0840    -0.1210    -2.1400 ha         1 BPJ       0.108000
     31 H6           3.8730    -0.3720     0.1590 ha         1 BPJ       0.115000
     32 H7           3.5130    -0.5820     2.4480 ha         1 BPJ       0.114000
     33 H8           2.0660    -0.5790     4.4270 ha         1 BPJ       0.115000
     34 H9          -0.0290    -0.2650     5.4620 ha         1 BPJ       0.113000
     35 H10         -2.4150     0.3940     5.3870 ha         1 BPJ       0.115000
     36 H11         -3.4370     1.0450     3.2170 ha         1 BPJ       0.112000
     37 H12         -2.1580     1.0130     1.1900 ha         1 BPJ       0.112000
@<TRIPOS>BOND
     1     1     2 1   
     2     1    16 1   
     3     1    22 1   
     4     1    23 1   
     5     2     3 1   
     6     2     4 1   
     7     2    24 1   
     8     3    25 1   
     9     4     5 1   
    10     4     6 1   
    11     4    26 1   
    12     5    27 1   
    13     6     7 1   
    14     6    17 1   
    15     6    28 1   
    16     7    29 1   
    17     8     9 ar  
    18     8    17 ar  
    19     8    30 1   
    20     9    18 ar  
    21     9    31 1   
    22    10    11 ar  
    23    10    18 ar  
    24    10    32 1   
    25    11    21 ar  
    26    11    33 1   
    27    12    13 ar  
    28    12    21 ar  
    29    12    34 1   
    30    13    14 ar  
    31    13    35 1   
    32    14    15 ar  
    33    14    36 1   
    34    15    20 ar  
    35    15    37 1   
    36    16    17 ar  
    37    16    19 ar  
    38    18    19 ar  
    39    19    20 ar  
    40    20    21 ar  
@<TRIPOS>SUBSTRUCTURE
     1 BPJ         1 TEMP              0 ****  ****    0 ROOT
