@<TRIPOS>MOLECULE
BPJ
   37    40     1     0     0
SMALL
bcc


@<TRIPOS>ATOM
      1 C1          -1.4270    -0.0100    -0.8550 c6         1 BPJ      -0.077100
      2 C2          -1.7070    -0.5170    -2.2630 c6         1 BPJ       0.154100
      3 O2          -1.3210    -1.8600    -2.4480 oh         1 BPJ      -0.583800
      4 C3          -0.9300     0.3440    -3.2310 c6         1 BPJ       0.158100
      5 O3          -1.3180     0.0540    -4.5510 oh         1 BPJ      -0.585800
      6 C4           0.5580     0.1210    -3.0200 c6         1 BPJ       0.158400
      7 O4           1.2400     1.1480    -3.7180 oh         1 BPJ      -0.605800
      8 C5           2.3350     0.0430    -1.2980 ca         1 BPJ      -0.115000
      9 C6           2.7960    -0.1010    -0.0220 ca         1 BPJ      -0.117000
     10 C7           2.4210    -0.3630     2.3660 ca         1 BPJ      -0.115000
     11 C8           1.6080    -0.4320     3.4380 ca         1 BPJ      -0.116000
     12 C9          -0.5830    -0.0910     4.4600 ca         1 BPJ      -0.117000
     13 C10         -1.8930     0.3120     4.4020 ca         1 BPJ      -0.124000
     14 C11         -2.4220     0.7100     3.1720 ca         1 BPJ      -0.128000
     15 C12         -1.6630     0.6420     2.0260 ca         1 BPJ      -0.126000
     16 C13          0.0420     0.0760    -0.5100 ca         1 BPJ      -0.043300
     17 C14          0.9570     0.0980    -1.5550 ca         1 BPJ      -0.084300
     18 C15          1.9000    -0.1190     1.0580 ca         1 BPJ      -0.036000
     19 C16          0.5100     0.0540     0.8420 ca         1 BPJ      -0.008000
     20 C17         -0.3330     0.1680     2.0300 ca         1 BPJ      -0.015000
     21 C18          0.2170    -0.1400     3.3030 ca         1 BPJ      -0.037000
     22 H11A        -1.9040     0.9700    -0.7720 hc         1 BPJ       0.059700
     23 H12A        -1.9460    -0.6580    -0.1430 hc         1 BPJ       0.059700
     24 H2          -2.7820    -0.3910    -2.4500 h1         1 BPJ       0.048700
     25 HO2         -1.7660    -2.3970    -1.7860 ho         1 BPJ       0.405000
     26 H3          -1.1570     1.3910    -2.9790 h1         1 BPJ       0.049700
     27 HO3         -0.8320     0.6410    -5.1380 ho         1 BPJ       0.414000
     28 H4           0.8180    -0.8550    -3.4480 h1         1 BPJ       0.068700
     29 HO4          2.0450     0.7890    -4.0990 ho         1 BPJ       0.407000
     30 H5           3.0410     0.0600    -2.1180 ha         1 BPJ       0.126000
     31 H6           3.8550    -0.2130     0.1710 ha         1 BPJ       0.133000
     32 H7           3.4880    -0.5210     2.4700 ha         1 BPJ       0.132000
     33 H8           2.0010    -0.6600     4.4210 ha         1 BPJ       0.133000
     34 H9          -0.1340    -0.3560     5.4090 ha         1 BPJ       0.131000
     35 H10         -2.4960     0.3550     5.2990 ha         1 BPJ       0.133000
     36 H11         -3.4330     1.0910     3.1140 ha         1 BPJ       0.130000
     37 H12         -2.1120     1.0120     1.1220 ha         1 BPJ       0.130000
@<TRIPOS>BOND
     1     1     2 1   
     2     1    16 1   
     3     1    22 1   
     4     1    23 1   
     5     2     3 1   
     6     2     4 1   
     7     2    24 1   
     8     3    25 1   
     9     4     5 1   
    10     4     6 1   
    11     4    26 1   
    12     5    27 1   
    13     6     7 1   
    14     6    17 1   
    15     6    28 1   
    16     7    29 1   
    17     8     9 ar  
    18     8    17 ar  
    19     8    30 1   
    20     9    18 ar  
    21     9    31 1   
    22    10    11 ar  
    23    10    18 ar  
    24    10    32 1   
    25    11    21 ar  
    26    11    33 1   
    27    12    13 ar  
    28    12    21 ar  
    29    12    34 1   
    30    13    14 ar  
    31    13    35 1   
    32    14    15 ar  
    33    14    36 1   
    34    15    20 ar  
    35    15    37 1   
    36    16    17 ar  
    37    16    19 ar  
    38    18    19 ar  
    39    19    20 ar  
    40    20    21 ar  
@<TRIPOS>SUBSTRUCTURE
     1 BPJ         1 TEMP              0 ****  ****    0 ROOT
