@<TRIPOS>MOLECULE
BPK
   39    41     1     0     0
SMALL
No Charge or Current Charge


@<TRIPOS>ATOM
      1 C5          -6.8160     1.2640    -0.0920 ca         1 BPK      -0.092000
      2 C4          -6.4210     0.2470    -0.9740 ca         1 BPK      -0.119000
      3 C6          -5.8960     1.7830     0.8320 ca         1 BPK      -0.119000
      4 C19          4.7610     0.0100     2.1260 ca         1 BPK      -0.077000
      5 C3          -5.1070    -0.2530    -0.9340 ca         1 BPK      -0.072500
      6 C7          -4.5820     1.2860     0.8750 ca         1 BPK      -0.072500
      7 C18          5.6380     0.3890     1.0950 ca         1 BPK      -0.128000
      8 C20          3.3930    -0.1660     1.8580 ca         1 BPK      -0.195000
      9 C16          3.7820     0.4170    -0.4730 ca         1 BPK      -0.122000
     10 C2          -4.1700     0.2610    -0.0080 ca         1 BPK      -0.135500
     11 C17          5.1550     0.5960    -0.2110 ca         1 BPK      -0.053300
     12 C15          2.8990     0.0380     0.5510 ca         1 BPK       0.140100
     13 C9          -0.7610    -0.6270     0.5200 cc         1 BPK       0.226300
     14 C10         -1.1360    -1.4640    -0.4970 cd         1 BPK       0.140300
     15 C1          -2.7870    -0.2590     0.0400 cd         1 BPK       0.503500
     16 C13          0.5820    -0.5200     1.2020 c3         1 BPK       0.150300
     17 N8          -1.8330     0.1500     0.8690 nc         1 BPK      -0.657000
     18 O11         -2.4350    -1.2540    -0.8320 os         1 BPK      -0.258000
     19 O22          6.5830    -0.1390    -2.0340 oh         1 BPK      -0.652000
     20 O14          1.5670    -0.1210     0.2280 os         1 BPK      -0.336100
     21 H5          -7.8330     1.6500    -0.1240 ha         1 BPK       0.115000
     22 H4          -7.1330    -0.1570    -1.6910 ha         1 BPK       0.117000
     23 H6          -6.2000     2.5720     1.5170 ha         1 BPK       0.117000
     24 H19          5.1440    -0.1480     3.1320 ha         1 BPK       0.110000
     25 H3          -4.8240    -1.0420    -1.6280 ha         1 BPK       0.131000
     26 H7          -3.8830     1.7020     1.5990 ha         1 BPK       0.131000
     27 H18          6.6960     0.5210     1.3120 ha         1 BPK       0.114000
     28 H20          2.7370    -0.4590     2.6730 ha         1 BPK       0.114000
     29 H16          3.3970     0.5710    -1.4780 ha         1 BPK       0.129000
     30 H12          0.1210    -3.2130    -0.5460 hc         1 BPK       0.060367
     31 H12A        -0.9990    -3.0900    -1.9130 hc         1 BPK       0.060367
     32 H12B         0.4360    -2.0510    -1.8470 hc         1 BPK       0.060367
     33 H21          5.5770     1.6870    -2.0170 h1         1 BPK       0.025200
     34 H21A         6.9460     1.5720    -0.9010 h1         1 BPK       0.025200
     35 H13          0.5220     0.2150     2.0150 h1         1 BPK       0.046700
     36 H13A         0.8380    -1.4960     1.6340 h1         1 BPK       0.046700
     37 HO22         7.1870     0.1910    -2.7350 ho         1 BPK       0.439000
     38 C12         -0.3530    -2.5120    -1.2420 c3         1 BPK      -0.120400
     39 C21          6.1040     1.0120    -1.3290 c3         1 BPK       0.206900
@<TRIPOS>BOND
     1     1     2 ar  
     2     1     3 ar  
     3     1    21 1   
     4     2     5 ar  
     5     2    22 1   
     6     3     6 ar  
     7     3    23 1   
     8     4     7 ar  
     9     4     8 ar  
    10     4    24 1   
    11     5    10 ar  
    12     5    25 1   
    13     6    10 ar  
    14     6    26 1   
    15     7    11 ar  
    16     7    27 1   
    17     8    12 ar  
    18     8    28 1   
    19     9    11 ar  
    20     9    12 ar  
    21     9    29 1   
    22    10    15 1   
    23    11    39 1   
    24    12    20 1   
    25    13    14 2   
    26    13    16 1   
    27    13    17 1   
    28    14    18 1   
    29    14    38 1   
    30    15    17 2   
    31    15    18 1   
    32    16    20 1   
    33    16    35 1   
    34    16    36 1   
    35    19    37 1   
    36    19    39 1   
    37    30    38 1   
    38    31    38 1   
    39    32    38 1   
    40    33    39 1   
    41    34    39 1   
@<TRIPOS>SUBSTRUCTURE
     1 BPK         1 TEMP              0 ****  ****    0 ROOT
