@<TRIPOS>MOLECULE
BPK
   39    41     1     0     0
SMALL
bcc


@<TRIPOS>ATOM
      1 C5          -6.1920     1.7790    -0.4300 ca         1 BPK      -0.110000
      2 C4          -6.0950     0.5010    -0.9640 ca         1 BPK      -0.137000
      3 C6          -5.1160     2.3190     0.2650 ca         1 BPK      -0.137000
      4 C19          4.7900    -0.3110     1.8010 ca         1 BPK      -0.095000
      5 C3          -4.9320    -0.2380    -0.8070 ca         1 BPK      -0.090500
      6 C7          -3.9510     1.5880     0.4240 ca         1 BPK      -0.090500
      7 C18          5.4850     0.5050     0.9250 ca         1 BPK      -0.146000
      8 C20          3.4430    -0.5930     1.6040 ca         1 BPK      -0.213000
      9 C16          3.4870     0.7800    -0.3760 ca         1 BPK      -0.140000
     10 C2          -3.8500     0.3030    -0.1120 ca         1 BPK      -0.135500
     11 C17          4.8290     1.0600    -0.1740 ca         1 BPK      -0.053300
     12 C15          2.7850    -0.0430     0.5070 ca         1 BPK       0.140100
     13 C9          -0.6650    -1.1210     0.5510 cc         1 BPK       0.226300
     14 C10         -1.2880    -2.1370    -0.0920 cd         1 BPK       0.184700
     15 C1          -2.6120    -0.4410     0.0690 cd         1 BPK       0.547900
     16 C13          0.7160    -1.0660     1.0860 c3         1 BPK       0.127100
     17 N8          -1.5260    -0.0490     0.6410 nc         1 BPK      -0.657000
     18 O11         -2.5360    -1.6980    -0.3950 os         1 BPK      -0.346800
     19 O22          6.0990     1.0460    -2.1630 oh         1 BPK      -0.589800
     20 O14          1.4850    -0.2500     0.2140 os         1 BPK      -0.312900
     21 H5          -7.1010     2.3520    -0.5540 ha         1 BPK       0.133000
     22 H4          -6.9280     0.0750    -1.5070 ha         1 BPK       0.135000
     23 H6          -5.1860     3.3140     0.6850 ha         1 BPK       0.135000
     24 H19          5.2960    -0.7400     2.6560 ha         1 BPK       0.128000
     25 H3          -4.8750    -1.2310    -1.2320 ha         1 BPK       0.149000
     26 H7          -3.1160     2.0110     0.9670 ha         1 BPK       0.149000
     27 H18          6.5330     0.7180     1.0940 ha         1 BPK       0.132000
     28 H20          2.9320    -1.2340     2.3110 ha         1 BPK       0.132000
     29 H16          2.9630     1.2050    -1.2250 ha         1 BPK       0.147000
     30 H12         -1.5500    -4.2540    -0.0230 hc         1 BPK       0.060367
     31 H12A        -0.9630    -3.6410    -1.5690 hc         1 BPK       0.060367
     32 H12B         0.1180    -3.7100    -0.1800 hc         1 BPK       0.060367
     33 H21          4.9050     2.6540    -1.5940 h1         1 BPK       0.025200
     34 H21A         6.3790     2.4470    -0.6480 h1         1 BPK       0.025200
     35 H13          0.7090    -0.6450     2.0960 h1         1 BPK       0.046700
     36 H13A         1.1390    -2.0730     1.1510 h1         1 BPK       0.046700
     37 HO22         6.6090     1.5860    -2.7750 ho         1 BPK       0.400000
     38 C12         -0.9050    -3.5070    -0.4880 c3         1 BPK      -0.120400
     39 C21          5.5790     1.9030    -1.1650 c3         1 BPK       0.183700
@<TRIPOS>BOND
     1     1     2 ar  
     2     1     3 ar  
     3     1    21 1   
     4     2     5 ar  
     5     2    22 1   
     6     3     6 ar  
     7     3    23 1   
     8     4     7 ar  
     9     4     8 ar  
    10     4    24 1   
    11     5    10 ar  
    12     5    25 1   
    13     6    10 ar  
    14     6    26 1   
    15     7    11 ar  
    16     7    27 1   
    17     8    12 ar  
    18     8    28 1   
    19     9    11 ar  
    20     9    12 ar  
    21     9    29 1   
    22    10    15 1   
    23    11    39 1   
    24    12    20 1   
    25    13    14 2   
    26    13    16 1   
    27    13    17 1   
    28    14    18 1   
    29    14    38 1   
    30    15    17 2   
    31    15    18 1   
    32    16    20 1   
    33    16    35 1   
    34    16    36 1   
    35    19    37 1   
    36    19    39 1   
    37    30    38 1   
    38    31    38 1   
    39    32    38 1   
    40    33    39 1   
    41    34    39 1   
@<TRIPOS>SUBSTRUCTURE
     1 BPK         1 TEMP              0 ****  ****    0 ROOT
