@<TRIPOS>MOLECULE
BPL
   41    45     1     0     0
SMALL
No Charge or Current Charge


@<TRIPOS>ATOM
      1 C1          -0.0270    -0.2540    -4.9140 ca         1 BPL      -0.094000
      2 C2           1.3550    -0.1670    -5.1410 ca         1 BPL      -0.106000
      3 C3           2.2320    -0.0020    -4.0580 ca         1 BPL      -0.094000
      4 C4           1.7280     0.0780    -2.7460 ca         1 BPL      -0.034000
      5 C5           0.3380    -0.0060    -2.5090 ca         1 BPL      -0.013000
      6 C6          -0.1740     0.0750    -1.1870 ca         1 BPL      -0.007000
      7 C7           0.7220     0.2390    -0.1050 ca         1 BPL      -0.038000
      8 C8           0.2290     0.3090     1.2190 ca         1 BPL       0.003000
      9 C9          -1.1680     0.2520     1.4600 ca         1 BPL      -0.025000
     10 C10         -2.0750     0.0810     0.3770 ca         1 BPL      -0.010000
     11 C11         -1.5740    -0.0130    -0.9570 ca         1 BPL      -0.016000
     12 C12         -2.4270    -0.1830    -2.0800 ca         1 BPL      -0.095000
     13 C13         -1.9120    -0.2620    -3.3810 ca         1 BPL      -0.097000
     14 C14         -0.5340    -0.1740    -3.6030 ca         1 BPL      -0.033000
     15 C15          2.6090     0.2400    -1.6690 ca         1 BPL      -0.094000
     16 C16          2.1140     0.3180    -0.3610 ca         1 BPL      -0.094000
     17 C17         -1.6740     0.3880     2.7780 ca         1 BPL      -0.080000
     18 C18         -3.0480     0.3280     3.0360 ca         1 BPL      -0.111000
     19 C19         -3.9430     0.1380     1.9810 ca         1 BPL      -0.101000
     20 C20         -3.4660     0.0200     0.6680 ca         1 BPL      -0.104000
     21 N21          1.1550     0.4480     2.2890 ns         1 BPL      -0.203000
     22 C22          1.4320    -0.4290     3.3170 c          1 BPL       0.652100
     23 O23          0.8980    -1.5200     3.4530 o          1 BPL      -0.617100
     24 N24          2.3860     0.0450     4.1840 ns         1 BPL      -0.532900
     25 C25          2.8650    -0.6880     5.3570 c3         1 BPL       0.113300
     26 H1          -0.7020    -0.3830    -5.7570 ha         1 BPL       0.114000
     27 H2           1.7460    -0.2290    -6.1540 ha         1 BPL       0.114000
     28 H3           3.3030     0.0640    -4.2390 ha         1 BPL       0.113000
     29 H12         -3.5020    -0.2590    -1.9860 ha         1 BPL       0.114000
     30 H13         -2.5940    -0.3920    -4.2190 ha         1 BPL       0.114000
     31 H15          3.6810     0.3050    -1.8420 ha         1 BPL       0.113000
     32 H16          2.8320     0.4400     0.4440 ha         1 BPL       0.112000
     33 H17         -1.0140     0.5520     3.6240 ha         1 BPL       0.118000
     34 H18         -3.4180     0.4310     4.0540 ha         1 BPL       0.113000
     35 H19         -5.0120     0.0910     2.1780 ha         1 BPL       0.113000
     36 H20         -4.2150    -0.1140    -0.1010 ha         1 BPL       0.112000
     37 H21          1.7040     1.2970     2.2720 hn         1 BPL       0.151000
     38 H24          2.7740     0.9600     3.9920 hn         1 BPL       0.309500
     39 H26          3.6230    -0.0900     5.8790 h1         1 BPL       0.039367
     40 H27          2.0270    -0.8850     6.0380 h1         1 BPL       0.039367
     41 H28          3.3110    -1.6400     5.0420 h1         1 BPL       0.039367
@<TRIPOS>BOND
     1     1     2 ar  
     2     1    14 ar  
     3     1    26 1   
     4     2     3 ar  
     5     2    27 1   
     6     3     4 ar  
     7     3    28 1   
     8     4     5 ar  
     9     4    15 ar  
    10     5     6 ar  
    11     5    14 ar  
    12     6     7 ar  
    13     6    11 ar  
    14     7     8 ar  
    15     7    16 ar  
    16     8     9 ar  
    17     8    21 1   
    18     9    10 ar  
    19     9    17 ar  
    20    10    11 ar  
    21    10    20 ar  
    22    11    12 ar  
    23    12    13 ar  
    24    12    29 1   
    25    13    14 ar  
    26    13    30 1   
    27    15    16 ar  
    28    15    31 1   
    29    16    32 1   
    30    17    18 ar  
    31    17    33 1   
    32    18    19 ar  
    33    18    34 1   
    34    19    20 ar  
    35    19    35 1   
    36    20    36 1   
    37    21    22 1   
    38    21    37 1   
    39    22    23 2   
    40    22    24 1   
    41    24    25 1   
    42    24    38 1   
    43    25    39 1   
    44    25    40 1   
    45    25    41 1   
@<TRIPOS>SUBSTRUCTURE
     1 BPL         1 TEMP              0 ****  ****    0 ROOT
