@<TRIPOS>MOLECULE
BPL
   41    45     1     0     0
SMALL
bcc


@<TRIPOS>ATOM
      1 C1          -0.0030    -0.3220    -4.8660 ca         1 BPL      -0.112000
      2 C2           1.3570    -0.2270    -5.0820 ca         1 BPL      -0.124000
      3 C3           2.2260    -0.0340    -4.0120 ca         1 BPL      -0.112000
      4 C4           1.7420     0.0710    -2.7140 ca         1 BPL      -0.034000
      5 C5           0.3470    -0.0200    -2.4760 ca         1 BPL      -0.013000
      6 C6          -0.1710     0.0870    -1.1540 ca         1 BPL      -0.007000
      7 C7           0.7320     0.2950    -0.0610 ca         1 BPL      -0.038000
      8 C8           0.2370     0.4180     1.2220 ca         1 BPL       0.095600
      9 C9          -1.1560     0.3340     1.4780 ca         1 BPL      -0.025000
     10 C10         -2.0590     0.0930     0.4080 ca         1 BPL      -0.010000
     11 C11         -1.5540    -0.0180    -0.9270 ca         1 BPL      -0.016000
     12 C12         -2.4100    -0.2220    -2.0500 ca         1 BPL      -0.113000
     13 C13         -1.9220    -0.3180    -3.3110 ca         1 BPL      -0.115000
     14 C14         -0.5270    -0.2220    -3.5690 ca         1 BPL      -0.033000
     15 C15          2.6200     0.2610    -1.5930 ca         1 BPL      -0.112000
     16 C16          2.1430     0.3650    -0.3380 ca         1 BPL      -0.112000
     17 C17         -1.6680     0.4940     2.7880 ca         1 BPL      -0.098000
     18 C18         -3.0080     0.3960     3.0390 ca         1 BPL      -0.129000
     19 C19         -3.9030     0.1300     1.9860 ca         1 BPL      -0.119000
     20 C20         -3.4380    -0.0110     0.7080 ca         1 BPL      -0.122000
     21 N21          1.1160     0.6680     2.2930 ns         1 BPL      -0.529100
     22 C22          1.4750    -0.3190     3.1750 c          1 BPL       0.786100
     23 O23          1.0480    -1.4630     3.0780 o          1 BPL      -0.617100
     24 N24          2.3190     0.0730     4.1520 ns         1 BPL      -0.599900
     25 C25          2.7840    -0.8450     5.1620 c3         1 BPL       0.113300
     26 H1          -0.6780    -0.4750    -5.6980 ha         1 BPL       0.132000
     27 H2           1.7510    -0.3060    -6.0870 ha         1 BPL       0.132000
     28 H3           3.2930     0.0360    -4.1860 ha         1 BPL       0.131000
     29 H12         -3.4790    -0.2970    -1.9110 ha         1 BPL       0.132000
     30 H13         -2.5990    -0.4670    -4.1430 ha         1 BPL       0.132000
     31 H15          3.6870     0.3130    -1.7750 ha         1 BPL       0.131000
     32 H16          2.8300     0.4980     0.4860 ha         1 BPL       0.130000
     33 H17         -0.9900     0.7150     3.6010 ha         1 BPL       0.136000
     34 H18         -3.3820     0.5250     4.0460 ha         1 BPL       0.131000
     35 H19         -4.9630     0.0450     2.1850 ha         1 BPL       0.131000
     36 H20         -4.1520    -0.2050    -0.0790 ha         1 BPL       0.130000
     37 H21          1.5840     1.5610     2.3240 hn         1 BPL       0.317500
     38 H24          2.6050     1.0350     4.2140 hn         1 BPL       0.309500
     39 H26          3.4210    -0.2950     5.8500 h1         1 BPL       0.039367
     40 H27          1.9620    -1.2760     5.7350 h1         1 BPL       0.039367
     41 H28          3.3700    -1.6610     4.7380 h1         1 BPL       0.039367
@<TRIPOS>BOND
     1     1     2 ar  
     2     1    14 ar  
     3     1    26 1   
     4     2     3 ar  
     5     2    27 1   
     6     3     4 ar  
     7     3    28 1   
     8     4     5 ar  
     9     4    15 ar  
    10     5     6 ar  
    11     5    14 ar  
    12     6     7 ar  
    13     6    11 ar  
    14     7     8 ar  
    15     7    16 ar  
    16     8     9 ar  
    17     8    21 1   
    18     9    10 ar  
    19     9    17 ar  
    20    10    11 ar  
    21    10    20 ar  
    22    11    12 ar  
    23    12    13 ar  
    24    12    29 1   
    25    13    14 ar  
    26    13    30 1   
    27    15    16 ar  
    28    15    31 1   
    29    16    32 1   
    30    17    18 ar  
    31    17    33 1   
    32    18    19 ar  
    33    18    34 1   
    34    19    20 ar  
    35    19    35 1   
    36    20    36 1   
    37    21    22 1   
    38    21    37 1   
    39    22    23 2   
    40    22    24 1   
    41    24    25 1   
    42    24    38 1   
    43    25    39 1   
    44    25    40 1   
    45    25    41 1   
@<TRIPOS>SUBSTRUCTURE
     1 BPL         1 TEMP              0 ****  ****    0 ROOT
