@<TRIPOS>MOLECULE
BPM
   33    34     1     0     0
SMALL
abcg2


@<TRIPOS>ATOM
      1 C0           0.0010     0.0400    -2.1530 c3         1 BPM       0.056200
      2 C1A         -1.2480     0.0300    -1.3040 ca         1 BPM      -0.161300
      3 C2A         -1.8230     1.2170    -0.8570 ca         1 BPM      -0.096000
      4 C3A         -2.9390     1.2130    -0.0320 ca         1 BPM      -0.184500
      5 C5A         -2.9490    -1.1820    -0.0730 ca         1 BPM      -0.184500
      6 C6A         -1.8340    -1.1660    -0.8990 ca         1 BPM      -0.096000
      7 C4A         -3.5060     0.0100     0.3930 ca         1 BPM       0.273100
      8 O1A         -4.5350     0.0000     1.2520 os         1 BPM      -0.463000
      9 PA          -6.1620    -0.0010     0.6120 p5         1 BPM       1.277900
     10 O2A         -6.2340     1.2810    -0.2000 o          1 BPM      -0.916667
     11 O3A         -6.2320    -1.2820    -0.2020 o          1 BPM      -0.916667
     12 O4A         -6.9470    -0.0040     1.9130 o          1 BPM      -0.916667
     13 C1B          1.2530     0.0340    -1.3100 ca         1 BPM      -0.161300
     14 C2B          1.8110    -1.1600    -0.8610 ca         1 BPM      -0.096000
     15 C3B          2.9280    -1.1720    -0.0380 ca         1 BPM      -0.184500
     16 C5B          2.9770     1.2220    -0.0870 ca         1 BPM      -0.184500
     17 C6B          1.8590     1.2220    -0.9100 ca         1 BPM      -0.096000
     18 C4B          3.5160     0.0230     0.3820 ca         1 BPM       0.273100
     19 O1B          4.5450     0.0210     1.2400 os         1 BPM      -0.463000
     20 PB           6.1690    -0.1000     0.6010 p5         1 BPM       1.277900
     21 O2B          6.1670    -1.4140    -0.1620 o          1 BPM      -0.916667
     22 O3B          6.3120     1.1430    -0.2620 o          1 BPM      -0.916667
     23 O4B          6.9550    -0.0930     1.9010 o          1 BPM      -0.916667
     24 HC01        -0.0000    -0.8310    -2.8130 hc         1 BPM       0.007200
     25 HC02        -0.0020     0.9210    -2.7990 hc         1 BPM       0.007200
     26 H2A         -1.3940     2.1660    -1.1600 ha         1 BPM       0.066000
     27 H3A         -3.3700     2.1480     0.3000 ha         1 BPM       0.108000
     28 H5A         -3.3880    -2.1250     0.2270 ha         1 BPM       0.108000
     29 H6A         -1.4120    -2.1070    -1.2350 ha         1 BPM       0.066000
     30 H2B          1.3670    -2.1030    -1.1620 ha         1 BPM       0.066000
     31 H3B          3.3460    -2.1130     0.2950 ha         1 BPM       0.108000
     32 H5B          3.4310     2.1590     0.2090 ha         1 BPM       0.108000
     33 H6B          1.4510     2.1690    -1.2470 ha         1 BPM       0.066000
@<TRIPOS>BOND
     1     1     2 1   
     2     1    13 1   
     3     1    24 1   
     4     1    25 1   
     5     2     3 ar  
     6     2     6 ar  
     7     3     4 ar  
     8     3    26 1   
     9     4     7 ar  
    10     4    27 1   
    11     5     6 ar  
    12     5     7 ar  
    13     5    28 1   
    14     6    29 1   
    15     7     8 1   
    16     8     9 1   
    17     9    10 1   
    18     9    11 1   
    19     9    12 1   
    20    13    14 ar  
    21    13    17 ar  
    22    14    15 ar  
    23    14    30 1   
    24    15    18 ar  
    25    15    31 1   
    26    16    17 ar  
    27    16    18 ar  
    28    16    32 1   
    29    17    33 1   
    30    18    19 1   
    31    19    20 1   
    32    20    21 1   
    33    20    22 1   
    34    20    23 1   
@<TRIPOS>SUBSTRUCTURE
     1 BPM         1 TEMP              0 ****  ****    0 ROOT
