@<TRIPOS>MOLECULE
BPM
   33    34     1     0     0
SMALL
No Charge or Current Charge


@<TRIPOS>ATOM
      1 C0           0.0100     0.8190    -2.2670 c3         1 BPM       0.056200
      2 C1A         -1.2550     0.6320    -1.4370 ca         1 BPM      -0.161300
      3 C2A         -1.8150     1.7210    -0.7430 ca         1 BPM      -0.096000
      4 C3A         -2.9830     1.5470     0.0180 ca         1 BPM      -0.184500
      5 C5A         -3.0430    -0.8030    -0.5960 ca         1 BPM      -0.184500
      6 C6A         -1.8730    -0.6300    -1.3570 ca         1 BPM      -0.096000
      7 C4A         -3.6070     0.2900     0.0970 ca         1 BPM       0.273100
      8 O1A         -4.7490     0.1940     0.8560 os         1 BPM      -0.463000
      9 PA          -5.6820    -1.0970     1.1110 p5         1 BPM       1.277900
     10 O2A         -6.2260    -1.6010    -0.1810 o          1 BPM      -0.916667
     11 O3A         -4.9000    -2.1740     1.7800 o          1 BPM      -0.916667
     12 O4A         -6.8170    -0.7040     1.9930 o          1 BPM      -0.916667
     13 C1B          1.2720     0.6080    -1.4380 ca         1 BPM      -0.161300
     14 C2B          1.8670    -0.6660    -1.3600 ca         1 BPM      -0.096000
     15 C3B          3.0340    -0.8610    -0.6000 ca         1 BPM      -0.184500
     16 C5B          3.0190     1.4900     0.0160 ca         1 BPM      -0.184500
     17 C6B          1.8530     1.6850    -0.7440 ca         1 BPM      -0.096000
     18 C4B          3.6190     0.2210     0.0940 ca         1 BPM       0.273100
     19 O1B          4.7590     0.1030     0.8510 os         1 BPM      -0.463000
     20 PB           5.6690    -1.2050     1.1040 p5         1 BPM       1.277900
     21 O2B          4.8670    -2.2680     1.7740 o          1 BPM      -0.916667
     22 O3B          6.2020    -1.7190    -0.1890 o          1 BPM      -0.916667
     23 O4B          6.8110    -0.8340     1.9860 o          1 BPM      -0.916667
     24 HC01         0.0030     0.1280    -3.1200 hc         1 BPM       0.007200
     25 HC02         0.0200     1.8230    -2.7100 hc         1 BPM       0.007200
     26 H2A         -1.3460     2.7000    -0.7930 ha         1 BPM       0.066000
     27 H3A         -3.4110     2.3930     0.5500 ha         1 BPM       0.108000
     28 H5A         -3.4980    -1.7870    -0.5550 ha         1 BPM       0.108000
     29 H6A         -1.4470    -1.4800    -1.8860 ha         1 BPM       0.066000
     30 H2B          1.4250    -1.5070    -1.8890 ha         1 BPM       0.066000
     31 H3B          3.4700    -1.8530    -0.5600 ha         1 BPM       0.108000
     32 H5B          3.4620     2.3260     0.5480 ha         1 BPM       0.108000
     33 H6B          1.4020     2.6740    -0.7930 ha         1 BPM       0.066000
@<TRIPOS>BOND
     1     1     2 1   
     2     1    13 1   
     3     1    24 1   
     4     1    25 1   
     5     2     3 ar  
     6     2     6 ar  
     7     3     4 ar  
     8     3    26 1   
     9     4     7 ar  
    10     4    27 1   
    11     5     6 ar  
    12     5     7 ar  
    13     5    28 1   
    14     6    29 1   
    15     7     8 1   
    16     8     9 1   
    17     9    10 1   
    18     9    11 1   
    19     9    12 1   
    20    13    14 ar  
    21    13    17 ar  
    22    14    15 ar  
    23    14    30 1   
    24    15    18 ar  
    25    15    31 1   
    26    16    17 ar  
    27    16    18 ar  
    28    16    32 1   
    29    17    33 1   
    30    18    19 1   
    31    19    20 1   
    32    20    21 1   
    33    20    22 1   
    34    20    23 1   
@<TRIPOS>SUBSTRUCTURE
     1 BPM         1 TEMP              0 ****  ****    0 ROOT
