@<TRIPOS>MOLECULE
BPN
   18    18     1     0     0
SMALL
No Charge or Current Charge


@<TRIPOS>ATOM
      1 C1           0.0120     0.3250     1.7020 ca         1 BPN      -0.043300
      2 C2          -1.2060     0.2630     0.9990 ca         1 BPN      -0.102000
      3 C3          -1.2190     0.1360    -0.4010 ca         1 BPN      -0.049000
      4 C4          -0.0040     0.0680    -1.1240 ca         1 BPN      -0.173200
      5 C5           1.2190     0.1300    -0.4140 ca         1 BPN      -0.049000
      6 C6           1.2220     0.2560     0.9860 ca         1 BPN      -0.102000
      7 C7           0.0210     0.4660     3.2190 c3         1 BPN       0.201900
      8 N1          -0.0120    -0.0670    -2.6170 no         1 BPN       0.693200
      9 O1           0.0210    -0.8240     3.8430 oh         1 BPN      -0.650000
     10 O4           1.0760    -0.1230    -3.2060 o          1 BPN      -0.399000
     11 O5          -1.1070    -0.1170    -3.1950 o          1 BPN      -0.399000
     12 H2          -2.1480     0.3110     1.5410 ha         1 BPN       0.128500
     13 H3          -2.1770     0.0900    -0.9150 ha         1 BPN       0.152000
     14 H5           2.1720     0.0790    -0.9390 ha         1 BPN       0.152000
     15 H6           2.1710     0.3000     1.5180 ha         1 BPN       0.128500
     16 H71         -0.8610     1.0410     3.5340 h1         1 BPN       0.030700
     17 H72          0.9090     1.0370     3.5240 h1         1 BPN       0.030700
     18 HO1          0.0270    -0.6690     4.8140 ho         1 BPN       0.448000
@<TRIPOS>BOND
     1     1     2 ar  
     2     1     6 ar  
     3     1     7 1   
     4     2     3 ar  
     5     2    12 1   
     6     3     4 ar  
     7     3    13 1   
     8     4     5 ar  
     9     4     8 1   
    10     5     6 ar  
    11     5    14 1   
    12     6    15 1   
    13     7     9 1   
    14     7    16 1   
    15     7    17 1   
    16     8    10 1   
    17     8    11 1   
    18     9    18 1   
@<TRIPOS>SUBSTRUCTURE
     1 BPN         1 TEMP              0 ****  ****    0 ROOT
