@<TRIPOS>MOLECULE
BPN
   18    18     1     0     0
SMALL
abcg2


@<TRIPOS>ATOM
      1 C1           0.0240     0.3660     1.6840 ca         1 BPN      -0.043300
      2 C2          -1.1820     0.2700     0.9950 ca         1 BPN      -0.102000
      3 C3          -1.2080     0.1230    -0.3800 ca         1 BPN      -0.049000
      4 C4          -0.0030     0.0640    -1.0650 ca         1 BPN      -0.173200
      5 C5           1.2150     0.1520    -0.4070 ca         1 BPN      -0.049000
      6 C6           1.2160     0.3030     0.9690 ca         1 BPN      -0.102000
      7 C7           0.0360     0.4770     3.1820 c3         1 BPN       0.201900
      8 N1          -0.0170    -0.0920    -2.5120 no         1 BPN       0.693200
      9 O1          -0.0350    -0.8330     3.7030 oh         1 BPN      -0.650000
     10 O4           1.0420    -0.1960    -3.0830 o          1 BPN      -0.399000
     11 O5          -1.0890    -0.1100    -3.0710 o          1 BPN      -0.399000
     12 H2          -2.1180     0.3210     1.5390 ha         1 BPN       0.128500
     13 H3          -2.1530     0.0560    -0.8990 ha         1 BPN       0.152000
     14 H5           2.1490     0.1090    -0.9480 ha         1 BPN       0.152000
     15 H6           2.1620     0.3790     1.4900 ha         1 BPN       0.128500
     16 H71         -0.8130     1.0890     3.5080 h1         1 BPN       0.030700
     17 H72          0.9490     0.9930     3.5020 h1         1 BPN       0.030700
     18 HO1         -0.0600    -0.7660     4.6630 ho         1 BPN       0.448000
@<TRIPOS>BOND
     1     1     2 ar  
     2     1     6 ar  
     3     1     7 1   
     4     2     3 ar  
     5     2    12 1   
     6     3     4 ar  
     7     3    13 1   
     8     4     5 ar  
     9     4     8 1   
    10     5     6 ar  
    11     5    14 1   
    12     6    15 1   
    13     7     9 1   
    14     7    16 1   
    15     7    17 1   
    16     8    10 1   
    17     8    11 1   
    18     9    18 1   
@<TRIPOS>SUBSTRUCTURE
     1 BPN         1 TEMP              0 ****  ****    0 ROOT
