@<TRIPOS>MOLECULE
BPO
   63    66     1     0     0
SMALL
abcg2


@<TRIPOS>ATOM
      1 C22         -0.0600     0.0680    -6.2010 ca         1 BPO      -0.175600
      2 C1          -0.9230    -1.1280     4.8280 ca         1 BPO      -0.070000
      3 N1           0.5060     0.8360     9.2250 nv         1 BPO      -1.034200
      4 C2          -0.5200    -0.9200     7.1900 ca         1 BPO      -0.064000
      5 C7           0.4140    -0.2200     0.8270 c3         1 BPO       0.087000
      6 C6           0.5290    -1.5380     0.0490 c          1 BPO       0.603100
      7 C5           0.0310    -0.1460     4.5740 ca         1 BPO      -0.148600
      8 C4           0.6980     0.4490     5.6380 ca         1 BPO      -0.044000
      9 C3           0.4390     0.0620     6.9480 ca         1 BPO      -0.207900
     10 C11         -0.4450     1.9600    -0.1100 ca         1 BPO      -0.088500
     11 C10         -0.6900     0.6380     0.2380 ca         1 BPO      -0.112300
     12 C9           1.2030     0.6920     8.0640 ce         1 BPO       0.662800
     13 C12         -1.4500     2.7410    -0.6640 ca         1 BPO      -0.114000
     14 C17          0.0500    -2.4300    -3.2120 c6         1 BPO      -0.091400
     15 C16          1.0080    -2.6630    -2.0500 c6         1 BPO       0.094500
     16 C14         -2.9690     0.8870    -0.5060 ca         1 BPO      -0.114000
     17 C13         -2.7140     2.2050    -0.8660 ca         1 BPO      -0.100000
     18 C15         -1.9630     0.1080     0.0450 ca         1 BPO      -0.088500
     19 C18          0.4560    -1.1870    -3.9970 c6         1 BPO      -0.157700
     20 C19         -0.5000    -0.8720    -5.1280 c          1 BPO       0.586700
     21 C20          0.5550     0.0220    -3.0520 c6         1 BPO      -0.091400
     22 C           -1.1960    -1.5090     6.1330 ca         1 BPO      -0.124000
     23 O            0.1220    -2.5720     0.5650 o          1 BPO      -0.619100
     24 O1           0.7820     1.4610     2.9980 o          1 BPO      -0.606100
     25 N            0.1560    -0.5520     2.2050 ns         1 BPO      -0.495900
     26 N2           2.4300     1.0420     7.9920 n2         1 BPO      -0.841100
     27 N3           1.0480    -1.4910    -1.1870 n          1 BPO      -0.392800
     28 O2          -1.6160    -1.3460    -5.1550 o          1 BPO      -0.517100
     29 C21          1.4840    -0.2960    -1.8870 c6         1 BPO       0.094500
     30 C23         -1.0090     0.5260    -7.1190 ca         1 BPO      -0.065500
     31 C24         -0.6450     1.3920    -8.1360 ca         1 BPO      -0.124000
     32 C25          0.6750     1.8110    -8.2550 ca         1 BPO      -0.082000
     33 C26          1.6270     1.3610    -7.3510 ca         1 BPO      -0.124000
     34 C27          1.2610     0.4970    -6.3290 ca         1 BPO      -0.065500
     35 HN11         0.9570     1.3710     9.9510 hn         1 BPO       0.469500
     36 HN12        -0.4900     0.9640     9.1750 hn         1 BPO       0.469500
     37 H2          -0.7310    -1.2380     8.2020 ha         1 BPO       0.126000
     38 H7           1.3570     0.3310     0.7770 h1         1 BPO       0.083700
     39 H4           1.4190     1.2310     5.4400 ha         1 BPO       0.140000
     40 H11          0.5400     2.3820     0.0480 ha         1 BPO       0.121000
     41 H12         -1.2450     3.7690    -0.9350 ha         1 BPO       0.116000
     42 H171         0.0590    -3.3110    -3.8580 hc         1 BPO       0.064700
     43 H172        -0.9660    -2.3250    -2.8240 hc         1 BPO       0.064700
     44 H161         2.0190    -2.8490    -2.4230 h1         1 BPO       0.059200
     45 H162         0.7090    -3.5330    -1.4740 h1         1 BPO       0.059200
     46 H14         -3.9540     0.4650    -0.6580 ha         1 BPO       0.116000
     47 H13         -3.5000     2.8110    -1.2990 ha         1 BPO       0.114000
     48 H15         -2.1740    -0.9180     0.3230 ha         1 BPO       0.121000
     49 H18          1.4520    -1.3640    -4.4200 hc         1 BPO       0.062700
     50 H201         0.9400     0.9000    -3.5720 hc         1 BPO       0.064700
     51 H202        -0.4370     0.2800    -2.6700 hc         1 BPO       0.064700
     52 H           -1.9410    -2.2690     6.3250 ha         1 BPO       0.121000
     53 HA          -0.0970    -1.5100     2.3980 hn         1 BPO       0.347500
     54 HB           2.8310     0.7710     7.1020 hn         1 BPO       0.391400
     55 H211         1.5520     0.5550    -1.2170 h1         1 BPO       0.059200
     56 H212         2.4960    -0.4740    -2.2610 h1         1 BPO       0.059200
     57 H23         -2.0380     0.2030    -7.0340 ha         1 BPO       0.123000
     58 H24         -1.3900     1.7410    -8.8380 ha         1 BPO       0.118000
     59 H25          0.9600     2.4840    -9.0530 ha         1 BPO       0.116000
     60 H26          2.6560     1.6810    -7.4390 ha         1 BPO       0.118000
     61 H27          2.0240     0.1580    -5.6410 ha         1 BPO       0.123000
     62 C8           0.3520     0.3330     3.1940 c          1 BPO       0.618700
     63 H1          -1.4840    -1.5850     4.0230 ha         1 BPO       0.121000
@<TRIPOS>BOND
     1     1    20 1   
     2     1    30 ar  
     3     1    34 ar  
     4     2     7 ar  
     5     2    22 ar  
     6     2    63 1   
     7     3    12 1   
     8     3    35 1   
     9     3    36 1   
    10     4     9 ar  
    11     4    22 ar  
    12     4    37 1   
    13     5     6 1   
    14     5    11 1   
    15     5    25 1   
    16     5    38 1   
    17     6    23 2   
    18     6    27 1   
    19     7     8 ar  
    20     7    62 1   
    21     8     9 ar  
    22     8    39 1   
    23     9    12 1   
    24    10    11 ar  
    25    10    13 ar  
    26    10    40 1   
    27    11    18 ar  
    28    12    26 2   
    29    13    17 ar  
    30    13    41 1   
    31    14    15 1   
    32    14    19 1   
    33    14    42 1   
    34    14    43 1   
    35    15    27 1   
    36    15    44 1   
    37    15    45 1   
    38    16    17 ar  
    39    16    18 ar  
    40    16    46 1   
    41    17    47 1   
    42    18    48 1   
    43    19    20 1   
    44    19    21 1   
    45    19    49 1   
    46    20    28 2   
    47    21    29 1   
    48    21    50 1   
    49    21    51 1   
    50    22    52 1   
    51    24    62 2   
    52    25    53 1   
    53    25    62 1   
    54    26    54 1   
    55    27    29 1   
    56    29    55 1   
    57    29    56 1   
    58    30    31 ar  
    59    30    57 1   
    60    31    32 ar  
    61    31    58 1   
    62    32    33 ar  
    63    32    59 1   
    64    33    34 ar  
    65    33    60 1   
    66    34    61 1   
@<TRIPOS>SUBSTRUCTURE
     1 BPO         1 TEMP              0 ****  ****    0 ROOT
