@<TRIPOS>MOLECULE
BPO
   63    66     1     0     0
SMALL
No Charge or Current Charge


@<TRIPOS>ATOM
      1 C22         -0.2800     0.0530    -6.5210 ca         1 BPO      -0.175600
      2 C1          -0.4360    -1.5820     4.9270 ca         1 BPO      -0.070000
      3 N1          -0.0830     0.5450     9.5500 nv         1 BPO      -1.034200
      4 C2          -0.4040    -1.3660     7.3530 ca         1 BPO      -0.064000
      5 C7           0.5720    -0.1560     0.9350 c3         1 BPO       0.087000
      6 C6           0.6080    -1.4230     0.0160 c          1 BPO       0.603100
      7 C5           0.2850    -0.3720     4.7940 ca         1 BPO      -0.148600
      8 C4           0.6510     0.3310     5.9660 ca         1 BPO      -0.044000
      9 C3           0.2990    -0.1440     7.2520 ca         1 BPO      -0.207900
     10 C11         -0.1260     2.2190     0.3280 ca         1 BPO      -0.088500
     11 C10         -0.4710     0.8590     0.4590 ca         1 BPO      -0.112300
     12 C9           0.7290     0.5870     8.4810 ce         1 BPO       0.662800
     13 C12         -1.0730     3.1520    -0.1300 ca         1 BPO      -0.114000
     14 C17         -0.0700    -2.1040    -3.3760 c6         1 BPO      -0.091400
     15 C16          0.9870    -2.4250    -2.2910 c6         1 BPO       0.094500
     16 C14         -2.7270     1.3810    -0.3190 ca         1 BPO      -0.114000
     17 C13         -2.3730     2.7330    -0.4560 ca         1 BPO      -0.100000
     18 C15         -1.7820     0.4470     0.1390 ca         1 BPO      -0.088500
     19 C18          0.2190    -0.7290    -4.0450 c6         1 BPO      -0.157700
     20 C19         -0.7950    -0.3440    -5.1520 c          1 BPO       0.586700
     21 C20          0.4700     0.4130    -3.0200 c6         1 BPO      -0.091400
     22 C           -0.7720    -2.0720     6.1980 ca         1 BPO      -0.124000
     23 O            0.2150    -2.5090     0.4360 o          1 BPO      -0.619100
     24 O1           1.2980     1.2390     3.3270 o          1 BPO      -0.606100
     25 N            0.3000    -0.5370     2.3360 ns         1 BPO      -0.495900
     26 N2           1.7280     1.3660     8.5190 n2         1 BPO      -0.841100
     27 N3           1.0800    -1.3050    -1.3170 n          1 BPO      -0.392800
     28 O2          -1.9970    -0.3440    -4.9110 o          1 BPO      -0.517100
     29 C21          1.5030    -0.0270    -1.9540 c6         1 BPO       0.094500
     30 C23         -1.0890    -0.1790    -7.6560 ca         1 BPO      -0.065500
     31 C24         -0.6460     0.1830    -8.9390 ca         1 BPO      -0.124000
     32 C25          0.6090     0.7900    -9.1060 ca         1 BPO      -0.082000
     33 C26          1.4170     1.0400    -7.9860 ca         1 BPO      -0.124000
     34 C27          0.9780     0.6780    -6.7000 ca         1 BPO      -0.065500
     35 HN11         0.0730     1.3010    10.2060 hn         1 BPO       0.469500
     36 HN12        -1.0510     0.3230     9.3540 hn         1 BPO       0.469500
     37 H2          -0.6590    -1.7790     8.3270 ha         1 BPO       0.126000
     38 H7           1.5730     0.2910     0.8910 h1         1 BPO       0.083700
     39 H4           1.1980     1.2670     5.8720 ha         1 BPO       0.140000
     40 H11          0.8780     2.5560     0.5800 ha         1 BPO       0.121000
     41 H12         -0.7980     4.1990    -0.2310 ha         1 BPO       0.116000
     42 H171        -0.0840    -2.9020    -4.1310 hc         1 BPO       0.064700
     43 H172        -1.0660    -2.0910    -2.9130 hc         1 BPO       0.064700
     44 H161         1.9690    -2.5690    -2.7650 h1         1 BPO       0.059200
     45 H162         0.7290    -3.3690    -1.7910 h1         1 BPO       0.059200
     46 H14         -3.7350     1.0550    -0.5670 ha         1 BPO       0.116000
     47 H13         -3.1050     3.4550    -0.8110 ha         1 BPO       0.114000
     48 H15         -2.0710    -0.5970     0.2410 ha         1 BPO       0.121000
     49 H18          1.1770    -0.8570    -4.5640 hc         1 BPO       0.062700
     50 H201         0.8230     1.3210    -3.5270 hc         1 BPO       0.064700
     51 H202        -0.4740     0.6800    -2.5250 hc         1 BPO       0.064700
     52 H           -1.3160    -3.0090     6.2900 ha         1 BPO       0.121000
     53 HA          -0.1810    -1.4120     2.5000 hn         1 BPO       0.347500
     54 HB           2.2760     1.2170     7.6620 hn         1 BPO       0.391400
     55 H211         1.6480     0.7750    -1.2210 h1         1 BPO       0.059200
     56 H212         2.4770    -0.1830    -2.4400 h1         1 BPO       0.059200
     57 H23         -2.0650    -0.6500    -7.5460 ha         1 BPO       0.123000
     58 H24         -1.2760    -0.0070    -9.8050 ha         1 BPO       0.118000
     59 H25          0.9510     1.0720   -10.1000 ha         1 BPO       0.116000
     60 H26          2.3850     1.5190    -8.1130 ha         1 BPO       0.118000
     61 H27          1.6190     0.9040    -5.8510 ha         1 BPO       0.123000
     62 C8           0.6750     0.1920     3.4410 c          1 BPO       0.618700
     63 H1          -0.7410    -2.1610     4.0590 ha         1 BPO       0.121000
@<TRIPOS>BOND
     1     1    20 1   
     2     1    30 ar  
     3     1    34 ar  
     4     2     7 ar  
     5     2    22 ar  
     6     2    63 1   
     7     3    12 1   
     8     3    35 1   
     9     3    36 1   
    10     4     9 ar  
    11     4    22 ar  
    12     4    37 1   
    13     5     6 1   
    14     5    11 1   
    15     5    25 1   
    16     5    38 1   
    17     6    23 2   
    18     6    27 1   
    19     7     8 ar  
    20     7    62 1   
    21     8     9 ar  
    22     8    39 1   
    23     9    12 1   
    24    10    11 ar  
    25    10    13 ar  
    26    10    40 1   
    27    11    18 ar  
    28    12    26 2   
    29    13    17 ar  
    30    13    41 1   
    31    14    15 1   
    32    14    19 1   
    33    14    42 1   
    34    14    43 1   
    35    15    27 1   
    36    15    44 1   
    37    15    45 1   
    38    16    17 ar  
    39    16    18 ar  
    40    16    46 1   
    41    17    47 1   
    42    18    48 1   
    43    19    20 1   
    44    19    21 1   
    45    19    49 1   
    46    20    28 2   
    47    21    29 1   
    48    21    50 1   
    49    21    51 1   
    50    22    52 1   
    51    24    62 2   
    52    25    53 1   
    53    25    62 1   
    54    26    54 1   
    55    27    29 1   
    56    29    55 1   
    57    29    56 1   
    58    30    31 ar  
    59    30    57 1   
    60    31    32 ar  
    61    31    58 1   
    62    32    33 ar  
    63    32    59 1   
    64    33    34 ar  
    65    33    60 1   
    66    34    61 1   
@<TRIPOS>SUBSTRUCTURE
     1 BPO         1 TEMP              0 ****  ****    0 ROOT
