@<TRIPOS>MOLECULE
BPP
   51    54     1     0     0
SMALL
abcg2


@<TRIPOS>ATOM
      1 C1         -24.4120   -31.5500    22.8300 ca         1 BPP      -0.183900
      2 C2         -23.9160   -32.7740    22.3990 ca         1 BPP       0.003000
      3 C3         -22.6590   -32.8310    21.7910 ca         1 BPP      -0.123800
      4 C4         -21.9120   -31.6320    21.6280 ca         1 BPP      -0.024200
      5 C5         -22.4030   -30.3970    22.0490 ca         1 BPP      -0.142000
      6 C6         -23.6470   -30.3740    22.6520 ca         1 BPP      -0.067000
      7 C10        -21.8710   -33.8870    21.2320 cc         1 BPP      -0.160200
      8 C11        -20.7050   -33.3250    20.7760 cd         1 BPP      -0.135300
      9 N12        -20.7300   -31.9630    21.0200 na         1 BPP      -0.222700
     10 C13        -25.7580   -31.4960    23.4680 ce         1 BPP       0.666800
     11 N14        -25.9490   -30.4680    24.3550 nv         1 BPP      -1.089200
     12 N15        -26.6580   -32.3560    23.1360 n2         1 BPP      -0.831100
     13 C17        -19.5970   -34.0080    20.0570 c          1 BPP       0.626300
     14 O18        -19.8750   -34.8270    19.1730 o          1 BPP      -0.584100
     15 N19        -18.3260   -33.6670    20.3740 n          1 BPP      -0.411800
     16 C20        -17.2160   -34.2180    19.5960 c6         1 BPP       0.095000
     17 C21        -16.4840   -35.3050    20.3770 c6         1 BPP      -0.099400
     18 C22        -16.0040   -34.7820    21.7330 c6         1 BPP      -0.057700
     19 C23        -17.1780   -34.1630    22.4930 c6         1 BPP      -0.099400
     20 C24        -17.9120   -33.1080    21.6650 c6         1 BPP       0.095000
     21 C33        -15.3070   -35.8920    22.5360 c3         1 BPP      -0.027100
     22 C35        -14.6810   -35.4070    23.8170 ca         1 BPP      -0.080300
     23 C38        -15.3010   -35.6120    25.0500 ca         1 BPP      -0.108500
     24 C39        -14.7370   -35.1260    26.2260 ca         1 BPP      -0.109000
     25 C40        -13.5370   -34.4240    26.1860 ca         1 BPP      -0.111000
     26 C41        -12.9050   -34.2150    24.9630 ca         1 BPP      -0.109000
     27 C42        -13.4750   -34.7030    23.7920 ca         1 BPP      -0.108500
     28 H2         -24.5050   -33.6700    22.5400 ha         1 BPP       0.140000
     29 H5         -21.8330   -29.4870    21.9070 ha         1 BPP       0.117000
     30 H6         -24.0520   -29.4230    22.9710 ha         1 BPP       0.117000
     31 H10        -22.1240   -34.9330    21.1780 ha         1 BPP       0.219000
     32 H141       -26.7910   -30.4800    24.9110 hn         1 BPP       0.463500
     33 H142       -25.1460   -30.0630    24.8080 hn         1 BPP       0.463500
     34 H151       -27.5070   -32.2180    23.6840 hn         1 BPP       0.367400
     35 H201       -17.6110   -34.5980    18.6590 h1         1 BPP       0.058950
     36 H202       -16.5300   -33.3930    19.3800 h1         1 BPP       0.058950
     37 H211       -17.1600   -36.1530    20.5290 hc         1 BPP       0.054450
     38 H212       -15.6360   -35.6630    19.7880 hc         1 BPP       0.054450
     39 H22        -15.2680   -33.9890    21.5450 hc         1 BPP       0.047700
     40 H231       -17.8880   -34.9520    22.7670 hc         1 BPP       0.054450
     41 H232       -16.8360   -33.7000    23.4210 hc         1 BPP       0.054450
     42 H241       -17.2540   -32.2560    21.4720 h1         1 BPP       0.058950
     43 H242       -18.7790   -32.7470    22.2070 h1         1 BPP       0.058950
     44 H331       -16.0380   -36.6750    22.7570 hc         1 BPP       0.050700
     45 H332       -14.5370   -36.3400    21.9020 hc         1 BPP       0.050700
     46 H38        -16.2370   -36.1570    25.0880 ha         1 BPP       0.110500
     47 H39        -15.2350   -35.2970    27.1730 ha         1 BPP       0.112500
     48 H40        -13.0940   -34.0460    27.1000 ha         1 BPP       0.113000
     49 H41        -11.9680   -33.6740    24.9210 ha         1 BPP       0.112500
     50 H42        -12.9760   -34.5380    22.8430 ha         1 BPP       0.110500
     51 H1         -20.0240   -31.3080    20.7270 hn         1 BPP       0.354000
@<TRIPOS>BOND
     1     1     2 ar  
     2     1     6 ar  
     3     1    10 1   
     4     2     3 ar  
     5     2    28 1   
     6     3     4 ar  
     7     3     7 1   
     8     4     5 ar  
     9     4     9 1   
    10     5     6 ar  
    11     5    29 1   
    12     6    30 1   
    13     7     8 2   
    14     7    31 1   
    15     8     9 1   
    16     8    13 1   
    17     9    51 1   
    18    10    11 1   
    19    10    12 2   
    20    11    32 1   
    21    11    33 1   
    22    12    34 1   
    23    13    14 2   
    24    13    15 1   
    25    15    16 1   
    26    15    20 1   
    27    16    17 1   
    28    16    35 1   
    29    16    36 1   
    30    17    18 1   
    31    17    37 1   
    32    17    38 1   
    33    18    19 1   
    34    18    21 1   
    35    18    39 1   
    36    19    20 1   
    37    19    40 1   
    38    19    41 1   
    39    20    42 1   
    40    20    43 1   
    41    21    22 1   
    42    21    44 1   
    43    21    45 1   
    44    22    23 ar  
    45    22    27 ar  
    46    23    24 ar  
    47    23    46 1   
    48    24    25 ar  
    49    24    47 1   
    50    25    26 ar  
    51    25    48 1   
    52    26    27 ar  
    53    26    49 1   
    54    27    50 1   
@<TRIPOS>SUBSTRUCTURE
     1 BPP         1 TEMP              0 ****  ****    0 ROOT
