@<TRIPOS>MOLECULE
BPP
   51    54     1     0     0
SMALL
No Charge or Current Charge


@<TRIPOS>ATOM
      1 C1         -24.7770   -31.3300    22.6410 ca         1 BPP      -0.183900
      2 C2         -24.3400   -32.4860    21.9430 ca         1 BPP       0.003000
      3 C3         -22.9680   -32.6480    21.7080 ca         1 BPP      -0.123800
      4 C4         -22.0470   -31.7300    22.1110 ca         1 BPP      -0.024200
      5 C5         -22.4330   -30.5650    22.7820 ca         1 BPP      -0.142000
      6 C6         -23.8060   -30.3650    23.0410 ca         1 BPP      -0.067000
      7 C10        -22.2560   -33.6980    21.0480 cc         1 BPP      -0.160200
      8 C11        -20.8980   -33.3830    21.0990 cd         1 BPP      -0.135300
      9 N12        -20.7690   -32.1200    21.7490 na         1 BPP      -0.222700
     10 C13        -26.2380   -31.1150    22.8800 ce         1 BPP       0.666800
     11 N14        -26.6030   -30.2820    23.8760 nv         1 BPP      -1.089200
     12 N15        -27.1460   -31.7540    22.2690 n2         1 BPP      -0.831100
     13 C17        -19.8520   -34.2490    20.4510 c          1 BPP       0.626300
     14 O18        -20.1650   -35.1790    19.7160 o          1 BPP      -0.584100
     15 N19        -18.4850   -33.9390    20.6780 n          1 BPP      -0.411800
     16 C20        -17.4210   -34.4480    19.7690 c6         1 BPP       0.095000
     17 C21        -16.5100   -35.4820    20.4660 c6         1 BPP      -0.099400
     18 C22        -15.8810   -34.8830    21.7480 c6         1 BPP      -0.057700
     19 C23        -17.0090   -34.3590    22.6760 c6         1 BPP      -0.099400
     20 C24        -17.9500   -33.3670    21.9480 c6         1 BPP       0.095000
     21 C33        -14.9580   -35.9140    22.4640 c3         1 BPP      -0.027100
     22 C35        -14.2330   -35.3480    23.6810 ca         1 BPP      -0.080300
     23 C38        -14.6280   -35.7160    24.9830 ca         1 BPP      -0.108500
     24 C39        -13.9600   -35.1880    26.1020 ca         1 BPP      -0.109000
     25 C40        -12.8940   -34.2900    25.9270 ca         1 BPP      -0.111000
     26 C41        -12.4950   -33.9210    24.6310 ca         1 BPP      -0.109000
     27 C42        -13.1620   -34.4480    23.5120 ca         1 BPP      -0.108500
     28 H2         -25.0450   -33.2410    21.6000 ha         1 BPP       0.140000
     29 H5         -21.6960   -29.8270    23.0900 ha         1 BPP       0.117000
     30 H6         -24.1090   -29.4490    23.5430 ha         1 BPP       0.117000
     31 H10        -22.6800   -34.5870    20.5830 ha         1 BPP       0.219000
     32 H141       -27.4990   -30.4790    24.3050 hn         1 BPP       0.463500
     33 H142       -25.8630   -30.0370    24.5240 hn         1 BPP       0.463500
     34 H151       -28.0410   -31.2890    22.4570 hn         1 BPP       0.367400
     35 H201       -17.8600   -34.8960    18.8670 h1         1 BPP       0.058950
     36 H202       -16.8110   -33.5970    19.4340 h1         1 BPP       0.058950
     37 H211       -17.0970   -36.3780    20.7130 hc         1 BPP       0.054450
     38 H212       -15.7220   -35.8030    19.7700 hc         1 BPP       0.054450
     39 H22        -15.2420   -34.0360    21.4590 hc         1 BPP       0.047700
     40 H231       -17.6000   -35.2050    23.0530 hc         1 BPP       0.054450
     41 H232       -16.5790   -33.8640    23.5580 hc         1 BPP       0.054450
     42 H241       -17.4080   -32.4360    21.7240 h1         1 BPP       0.058950
     43 H242       -18.7520   -33.1300    22.6540 h1         1 BPP       0.058950
     44 H331       -15.5460   -36.7930    22.7550 hc         1 BPP       0.050700
     45 H332       -14.2120   -36.2870    21.7530 hc         1 BPP       0.050700
     46 H38        -15.4540   -36.4070    25.1290 ha         1 BPP       0.110500
     47 H39        -14.2710   -35.4740    27.1050 ha         1 BPP       0.112500
     48 H40        -12.3780   -33.8820    26.7930 ha         1 BPP       0.113000
     49 H41        -11.6690   -33.2260    24.4940 ha         1 BPP       0.112500
     50 H42        -12.8480   -34.1570    22.5130 ha         1 BPP       0.110500
     51 H1         -19.9170   -31.5840    21.8740 hn         1 BPP       0.354000
@<TRIPOS>BOND
     1     1     2 ar  
     2     1     6 ar  
     3     1    10 1   
     4     2     3 ar  
     5     2    28 1   
     6     3     4 ar  
     7     3     7 1   
     8     4     5 ar  
     9     4     9 1   
    10     5     6 ar  
    11     5    29 1   
    12     6    30 1   
    13     7     8 2   
    14     7    31 1   
    15     8     9 1   
    16     8    13 1   
    17     9    51 1   
    18    10    11 1   
    19    10    12 2   
    20    11    32 1   
    21    11    33 1   
    22    12    34 1   
    23    13    14 2   
    24    13    15 1   
    25    15    16 1   
    26    15    20 1   
    27    16    17 1   
    28    16    35 1   
    29    16    36 1   
    30    17    18 1   
    31    17    37 1   
    32    17    38 1   
    33    18    19 1   
    34    18    21 1   
    35    18    39 1   
    36    19    20 1   
    37    19    40 1   
    38    19    41 1   
    39    20    42 1   
    40    20    43 1   
    41    21    22 1   
    42    21    44 1   
    43    21    45 1   
    44    22    23 ar  
    45    22    27 ar  
    46    23    24 ar  
    47    23    46 1   
    48    24    25 ar  
    49    24    47 1   
    50    25    26 ar  
    51    25    48 1   
    52    26    27 ar  
    53    26    49 1   
    54    27    50 1   
@<TRIPOS>SUBSTRUCTURE
     1 BPP         1 TEMP              0 ****  ****    0 ROOT
