@<TRIPOS>MOLECULE
BPQ
   37    38     1     0     0
SMALL
abcg2


@<TRIPOS>ATOM
      1 C2          15.8000    17.3900    23.1230 cc         1 BPQ       0.722800
      2 N1          17.1370    17.5610    23.3760 ns         1 BPQ      -0.448400
      3 C6          18.1650    17.4330    22.4300 c          1 BPQ       0.620600
      4 O6          19.3370    17.6280    22.7800 o          1 BPQ      -0.572000
      5 C5          17.6740    17.0870    21.1430 cc         1 BPQ      -0.306600
      6 C7          18.2840    16.8530    19.8620 cc         1 BPQ      -0.109300
      7 C10         19.7500    16.8990    19.5600 c3         1 BPQ       0.174300
      8 N11         20.3820    18.1210    20.0480 ns         1 BPQ      -0.471900
      9 C8          17.2610    16.5840    18.9960 cd         1 BPQ      -0.166000
     10 N9          16.0540    16.6330    19.6850 na         1 BPQ      -0.117000
     11 C4          16.2870    16.9410    20.9850 cd         1 BPQ       0.173400
     12 N3          15.3350    17.0760    21.9360 nd         1 BPQ      -0.709100
     13 N2          14.9480    17.6070    24.1540 nv         1 BPQ      -1.035200
     14 C14         20.3280    19.2680    19.3260 c          1 BPQ       0.634100
     15 O15         20.0610    19.3290    18.1350 o          1 BPQ      -0.558000
     16 C20         21.8370    21.7850    18.5450 c3         1 BPQ      -0.106100
     17 C17         20.7280    21.6930    19.5870 c3         1 BPQ       0.216000
     18 C19         21.0920    22.5000    20.8280 c3         1 BPQ      -0.106100
     19 C18         19.3750    22.1380    19.0410 c3         1 BPQ      -0.106100
     20 O16         20.6390    20.3190    20.1130 os         1 BPQ      -0.481100
     21 HN1         17.4350    17.8150    24.3090 hn         1 BPQ       0.325500
     22 H10         20.2640    16.0620    20.0380 h1         1 BPQ       0.069200
     23 H10A        19.9180    16.8200    18.4880 h1         1 BPQ       0.069200
     24 HN11        20.3820    18.2180    21.0570 hn         1 BPQ       0.339500
     25 H8          17.2830    16.3610    17.9420 h4         1 BPQ       0.158000
     26 HN9         15.1430    16.4750    19.2830 hn         1 BPQ       0.362000
     27 HN2         15.2930    17.5720    25.1000 hn         1 BPQ       0.495000
     28 HN2A        13.9980    17.3020    24.0170 hn         1 BPQ       0.495000
     29 H20         21.5920    21.2150    17.6520 hc         1 BPQ       0.048700
     30 H20A        21.9780    22.8310    18.2650 hc         1 BPQ       0.048700
     31 H20B        22.7750    21.4140    18.9610 hc         1 BPQ       0.048700
     32 H19         22.0390    22.1550    21.2440 hc         1 BPQ       0.048700
     33 H19A        21.1910    23.5530    20.5640 hc         1 BPQ       0.048700
     34 H19B        20.3160    22.4030    21.5890 hc         1 BPQ       0.048700
     35 H18         18.5980    21.9930    19.7950 hc         1 BPQ       0.048700
     36 H18A        19.4210    23.2010    18.7990 hc         1 BPQ       0.048700
     37 H18B        19.1050    21.5860    18.1450 hc         1 BPQ       0.048700
@<TRIPOS>BOND
     1     1     2 1   
     2     1    12 2   
     3     1    13 1   
     4     2     3 1   
     5     2    21 1   
     6     3     4 2   
     7     3     5 1   
     8     5     6 1   
     9     5    11 2   
    10     6     7 1   
    11     6     9 2   
    12     7     8 1   
    13     7    22 1   
    14     7    23 1   
    15     8    14 1   
    16     8    24 1   
    17     9    10 1   
    18     9    25 1   
    19    10    11 1   
    20    10    26 1   
    21    11    12 1   
    22    13    27 1   
    23    13    28 1   
    24    14    15 2   
    25    14    20 1   
    26    16    17 1   
    27    16    29 1   
    28    16    30 1   
    29    16    31 1   
    30    17    18 1   
    31    17    19 1   
    32    17    20 1   
    33    18    32 1   
    34    18    33 1   
    35    18    34 1   
    36    19    35 1   
    37    19    36 1   
    38    19    37 1   
@<TRIPOS>SUBSTRUCTURE
     1 BPQ         1 TEMP              0 ****  ****    0 ROOT
