@<TRIPOS>MOLECULE
BPQ
   37    38     1     0     0
SMALL
No Charge or Current Charge


@<TRIPOS>ATOM
      1 C2          15.7100    16.9630    23.2920 cc         1 BPQ       0.722800
      2 N1          17.0160    17.1500    23.5720 ns         1 BPQ      -0.448400
      3 C6          17.9800    17.1880    22.6280 c          1 BPQ       0.620600
      4 O6          19.1570    17.3670    22.9000 o          1 BPQ      -0.572000
      5 C5          17.4180    16.9940    21.2890 cc         1 BPQ      -0.306600
      6 C7          18.0790    16.9630    20.0310 cc         1 BPQ      -0.109300
      7 C10         19.5650    17.1270    19.8280 c3         1 BPQ       0.174300
      8 N11         20.0210    18.4640    20.1890 ns         1 BPQ      -0.471900
      9 C8          17.1200    16.7630    19.0630 cd         1 BPQ      -0.166000
     10 N9          15.8800    16.6700    19.7200 na         1 BPQ      -0.117000
     11 C4          16.0870    16.8140    21.0820 cd         1 BPQ       0.173400
     12 N3          15.1580    16.7930    22.1120 nd         1 BPQ      -0.709100
     13 N2          14.8910    16.9490    24.3300 nv         1 BPQ      -1.035200
     14 C14         20.2370    19.4820    19.3110 c          1 BPQ       0.634100
     15 O15         20.1190    19.3930    18.1000 o          1 BPQ      -0.558000
     16 C20         22.1350    21.7020    18.4660 c3         1 BPQ      -0.106100
     17 C17         20.9100    21.8580    19.4040 c3         1 BPQ       0.216000
     18 C19         21.2670    22.7880    20.5850 c3         1 BPQ      -0.106100
     19 C18         19.6500    22.3920    18.6740 c3         1 BPQ      -0.106100
     20 O16         20.6080    20.5870    20.0280 os         1 BPQ      -0.481100
     21 HN1         17.3060    17.2980    24.5220 hn         1 BPQ       0.325500
     22 H10         20.0990    16.3940    20.4470 h1         1 BPQ       0.069200
     23 H10A        19.8190    16.9200    18.7800 h1         1 BPQ       0.069200
     24 HN11        20.1360    18.6860    21.1690 hn         1 BPQ       0.339500
     25 H8          17.2190    16.6820    17.9850 h4         1 BPQ       0.158000
     26 HN9         14.9780    16.5220    19.2840 hn         1 BPQ       0.362000
     27 HN2         15.2690    16.5970    25.2000 hn         1 BPQ       0.495000
     28 HN2A        13.9580    16.6280    24.1050 hn         1 BPQ       0.495000
     29 H20         21.8830    21.1580    17.5490 hc         1 BPQ       0.048700
     30 H20A        22.5120    22.6860    18.1640 hc         1 BPQ       0.048700
     31 H20B        22.9480    21.1690    18.9730 hc         1 BPQ       0.048700
     32 H19         22.1300    22.4010    21.1390 hc         1 BPQ       0.048700
     33 H19A        21.5160    23.7940    20.2280 hc         1 BPQ       0.048700
     34 H19B        20.4240    22.8740    21.2820 hc         1 BPQ       0.048700
     35 H18         18.7680    22.3310    19.3230 hc         1 BPQ       0.048700
     36 H18A        19.7890    23.4420    18.3910 hc         1 BPQ       0.048700
     37 H18B        19.4420    21.8340    17.7540 hc         1 BPQ       0.048700
@<TRIPOS>BOND
     1     1     2 1   
     2     1    12 2   
     3     1    13 1   
     4     2     3 1   
     5     2    21 1   
     6     3     4 2   
     7     3     5 1   
     8     5     6 1   
     9     5    11 2   
    10     6     7 1   
    11     6     9 2   
    12     7     8 1   
    13     7    22 1   
    14     7    23 1   
    15     8    14 1   
    16     8    24 1   
    17     9    10 1   
    18     9    25 1   
    19    10    11 1   
    20    10    26 1   
    21    11    12 1   
    22    13    27 1   
    23    13    28 1   
    24    14    15 2   
    25    14    20 1   
    26    16    17 1   
    27    16    29 1   
    28    16    30 1   
    29    16    31 1   
    30    17    18 1   
    31    17    19 1   
    32    17    20 1   
    33    18    32 1   
    34    18    33 1   
    35    18    34 1   
    36    19    35 1   
    37    19    36 1   
    38    19    37 1   
@<TRIPOS>SUBSTRUCTURE
     1 BPQ         1 TEMP              0 ****  ****    0 ROOT
