@<TRIPOS>MOLECULE
BPS
   25    26     1     0     0
SMALL
No Charge or Current Charge


@<TRIPOS>ATOM
      1 CX1         -1.2750    -1.9250     0.5790 ca         1 BPS      -0.120000
      2 CX2         -0.6470    -0.7300     0.1510 cp         1 BPS       0.062000
      3 CX3         -1.4910     0.3420    -0.2710 ca         1 BPS      -0.067500
      4 CX4         -2.8920     0.2110    -0.2550 ca         1 BPS      -0.055000
      5 CX5         -3.4830    -0.9860     0.1810 ca         1 BPS      -0.126000
      6 CX6         -2.6740    -2.0540     0.5980 ca         1 BPS      -0.074000
      7 CX7          0.8440    -0.6830     0.1600 cp         1 BPS      -0.050000
      8 CX8          1.5510    -0.0950     1.2350 ca         1 BPS      -0.079500
      9 CX9          2.9570    -0.0890     1.2570 ca         1 BPS      -0.111000
     10 CXA          3.6780    -0.6820     0.2070 ca         1 BPS      -0.100000
     11 CXB          2.9930    -1.2860    -0.8610 ca         1 BPS      -0.111000
     12 CXC          1.5870    -1.2910    -0.8800 ca         1 BPS      -0.079500
     13 SX1         -0.7560     1.9250    -0.8750 sx         1 BPS       0.554300
     14 OX1         -0.2750     2.4080     0.6800 oh         1 BPS      -0.621800
     15 OX2          0.4510     1.5910    -1.7300 o          1 BPS      -0.515000
     16 H1          -0.6600    -2.7620     0.9040 ha         1 BPS       0.120000
     17 HX4         -3.5210     1.0360    -0.5820 ha         1 BPS       0.107000
     18 HX5         -4.5660    -1.0850     0.1940 ha         1 BPS       0.115000
     19 HX6         -3.1300    -2.9830     0.9340 ha         1 BPS       0.115000
     20 HX8          1.0000     0.3570     2.0560 ha         1 BPS       0.117500
     21 HX9          3.4850     0.3720     2.0880 ha         1 BPS       0.110500
     22 HX10         4.7660    -0.6790     0.2240 ha         1 BPS       0.109000
     23 HX11         3.5500    -1.7510    -1.6710 ha         1 BPS       0.110500
     24 HX12         1.0640    -1.7640    -1.7080 ha         1 BPS       0.117500
     25 HX1         -0.6810     3.2950     0.7730 ho         1 BPS       0.473000
@<TRIPOS>BOND
     1     1     2 ar  
     2     1     6 ar  
     3     1    16 1   
     4     2     3 ar  
     5     2     7 1   
     6     3     4 ar  
     7     3    13 1   
     8     4     5 ar  
     9     4    17 1   
    10     5     6 ar  
    11     5    18 1   
    12     6    19 1   
    13     7     8 ar  
    14     7    12 ar  
    15     8     9 ar  
    16     8    20 1   
    17     9    10 ar  
    18     9    21 1   
    19    10    11 ar  
    20    10    22 1   
    21    11    12 ar  
    22    11    23 1   
    23    12    24 1   
    24    13    14 1   
    25    13    15 2   
    26    14    25 1   
@<TRIPOS>SUBSTRUCTURE
     1 BPS         1 TEMP              0 ****  ****    0 ROOT
