@<TRIPOS>MOLECULE
BPS
   25    26     1     0     0
SMALL
abcg2


@<TRIPOS>ATOM
      1 CX1         -1.2340    -1.9650     0.3930 ca         1 BPS      -0.120000
      2 CX2         -0.6160    -0.7480     0.1080 cp         1 BPS       0.062000
      3 CX3         -1.4460     0.3470    -0.1470 ca         1 BPS      -0.067500
      4 CX4         -2.8300     0.2300    -0.1140 ca         1 BPS      -0.055000
      5 CX5         -3.4210    -0.9860     0.1900 ca         1 BPS      -0.126000
      6 CX6         -2.6150    -2.0870     0.4360 ca         1 BPS      -0.074000
      7 CX7          0.8650    -0.6960     0.1190 cp         1 BPS      -0.050000
      8 CX8          1.5520     0.0540     1.0700 ca         1 BPS      -0.079500
      9 CX9          2.9380     0.0320     1.1130 ca         1 BPS      -0.111000
     10 CXA          3.6550    -0.7360     0.2050 ca         1 BPS      -0.100000
     11 CXB          2.9760    -1.4920    -0.7410 ca         1 BPS      -0.111000
     12 CXC          1.5890    -1.4770    -0.7780 ca         1 BPS      -0.079500
     13 SX1         -0.8760     1.9480    -0.7040 sx         1 BPS       0.554300
     14 OX1         -0.5550     2.5320     0.8040 oh         1 BPS      -0.621800
     15 OX2          0.3990     1.7610    -1.4290 o          1 BPS      -0.515000
     16 H1          -0.6150    -2.8290     0.5990 ha         1 BPS       0.120000
     17 HX4         -3.4520     1.0880    -0.3400 ha         1 BPS       0.107000
     18 HX5         -4.4980    -1.0720     0.2200 ha         1 BPS       0.115000
     19 HX6         -3.0600    -3.0470     0.6650 ha         1 BPS       0.115000
     20 HX8          1.0030     0.6410     1.7940 ha         1 BPS       0.117500
     21 HX9          3.4610     0.6110     1.8640 ha         1 BPS       0.110500
     22 HX10         4.7370    -0.7510     0.2390 ha         1 BPS       0.109000
     23 HX11         3.5260    -2.0960    -1.4510 ha         1 BPS       0.110500
     24 HX12         1.0630    -2.0670    -1.5200 ha         1 BPS       0.117500
     25 HX1         -0.6710     3.4950     0.7910 ho         1 BPS       0.473000
@<TRIPOS>BOND
     1     1     2 ar  
     2     1     6 ar  
     3     1    16 1   
     4     2     3 ar  
     5     2     7 1   
     6     3     4 ar  
     7     3    13 1   
     8     4     5 ar  
     9     4    17 1   
    10     5     6 ar  
    11     5    18 1   
    12     6    19 1   
    13     7     8 ar  
    14     7    12 ar  
    15     8     9 ar  
    16     8    20 1   
    17     9    10 ar  
    18     9    21 1   
    19    10    11 ar  
    20    10    22 1   
    21    11    12 ar  
    22    11    23 1   
    23    12    24 1   
    24    13    14 1   
    25    13    15 2   
    26    14    25 1   
@<TRIPOS>SUBSTRUCTURE
     1 BPS         1 TEMP              0 ****  ****    0 ROOT
