@<TRIPOS>MOLECULE
BPU
   22    24     1     0     0
SMALL
abcg2


@<TRIPOS>ATOM
      1 OAA         -3.3910    -2.5580     0.0140 o          1 BPU      -0.527000
      2 CAC         -4.3380     1.6720    -0.0690 cc         1 BPU      -0.185000
      3 CAD          1.3590     1.5220    -0.0310 ca         1 BPU      -0.096000
      4 CAE         -4.4340     0.2680    -0.0420 cc         1 BPU      -0.083000
      5 CAF         -0.0050     1.7480    -0.0410 ca         1 BPU      -0.094000
      6 CAG         -3.0030     2.0040    -0.0690 cd         1 BPU      -0.161000
      7 CAH          0.9570    -0.8600     0.0020 ca         1 BPU      -0.122000
      8 NAI         -1.2990    -1.6910     0.0040 ns         1 BPU      -0.398100
      9 CAJ          1.8260     0.2150    -0.0100 ca         1 BPU       0.004100
     10 CAK         -2.6600    -1.5820    -0.0010 c          1 BPU       0.612600
     11 CAL         -0.4160    -0.6290    -0.0090 ca         1 BPU       0.073600
     12 CAM         -3.1480    -0.2190    -0.0260 cd         1 BPU      -0.258600
     13 CAN         -0.8970     0.6840    -0.0310 ca         1 BPU      -0.030200
     14 NAO         -2.2800     0.8540    -0.0420 na         1 BPU       0.156200
     15 HAC         -5.1540     2.3770    -0.0880 ha         1 BPU       0.141000
     16 HAD          2.0390     2.3630    -0.0380 ha         1 BPU       0.138000
     17 HAE         -5.3320    -0.3280    -0.0350 ha         1 BPU       0.153000
     18 HAF         -0.3650     2.7670    -0.0570 ha         1 BPU       0.128000
     19 HAG         -2.5350     2.9730    -0.0860 h4         1 BPU       0.152000
     20 HAH          1.3230    -1.8790     0.0170 ha         1 BPU       0.138000
     21 HNAI        -0.9170    -2.6270     0.0210 hn         1 BPU       0.334500
     22 BR           3.6830    -0.1070     0.0020 br         1 BPU      -0.078100
@<TRIPOS>BOND
     1     1    10 2   
     2     2     4 1   
     3     2     6 2   
     4     2    15 1   
     5     3     5 ar  
     6     3     9 ar  
     7     3    16 1   
     8     4    12 2   
     9     4    17 1   
    10     5    13 ar  
    11     5    18 1   
    12     6    14 1   
    13     6    19 1   
    14     7     9 ar  
    15     7    11 ar  
    16     7    20 1   
    17     8    10 1   
    18     8    11 1   
    19     8    21 1   
    20     9    22 1   
    21    10    12 1   
    22    11    13 ar  
    23    12    14 1   
    24    13    14 1   
@<TRIPOS>SUBSTRUCTURE
     1 BPU         1 TEMP              0 ****  ****    0 ROOT
