@<TRIPOS>MOLECULE
BPU
   22    24     1     0     0
SMALL
No Charge or Current Charge


@<TRIPOS>ATOM
      1 OAA         -3.4240    -2.6310     0.0180 o          1 BPU      -0.527000
      2 CAC         -4.3030     1.6830    -0.1480 cc         1 BPU      -0.185000
      3 CAD          1.3580     1.5350    -0.0370 ca         1 BPU      -0.096000
      4 CAE         -4.4010     0.2660    -0.0720 cc         1 BPU      -0.083000
      5 CAF         -0.0260     1.7730     0.0440 ca         1 BPU      -0.094000
      6 CAG         -2.9850     2.0710    -0.0470 cd         1 BPU      -0.161000
      7 CAH          0.9580    -0.8660    -0.0390 ca         1 BPU      -0.122000
      8 NAI         -1.3250    -1.7280     0.0720 ns         1 BPU      -0.398100
      9 CAJ          1.8470     0.2200    -0.0800 ca         1 BPU       0.004100
     10 CAK         -2.6950    -1.6530     0.0610 c          1 BPU       0.612600
     11 CAL         -0.4250    -0.6350     0.0380 ca         1 BPU       0.073600
     12 CAM         -3.1370    -0.2490     0.0690 cd         1 BPU      -0.258600
     13 CAN         -0.9340     0.6900     0.0730 ca         1 BPU      -0.030200
     14 NAO         -2.3260     0.8660     0.1890 na         1 BPU       0.156200
     15 HAC         -5.1500     2.3450    -0.3070 ha         1 BPU       0.141000
     16 HAD          2.0520     2.3730    -0.0610 ha         1 BPU       0.138000
     17 HAE         -5.3230    -0.3010    -0.1790 ha         1 BPU       0.153000
     18 HAF         -0.3730     2.8020     0.0910 ha         1 BPU       0.128000
     19 HAG         -2.5160     3.0450    -0.1000 h4         1 BPU       0.152000
     20 HAH          1.3440    -1.8820    -0.0700 ha         1 BPU       0.138000
     21 HNAI        -0.9320    -2.6610     0.0590 hn         1 BPU       0.334500
     22 Br           3.7300    -0.0940    -0.1870 br         1 BPU      -0.078100
@<TRIPOS>BOND
     1     1    10 2   
     2     2     4 1   
     3     2     6 2   
     4     2    15 1   
     5     3     5 ar  
     6     3     9 ar  
     7     3    16 1   
     8     4    12 2   
     9     4    17 1   
    10     5    13 ar  
    11     5    18 1   
    12     6    14 1   
    13     6    19 1   
    14     7     9 ar  
    15     7    11 ar  
    16     7    20 1   
    17     8    10 1   
    18     8    11 1   
    19     8    21 1   
    20     9    22 1   
    21    10    12 1   
    22    11    13 ar  
    23    12    14 1   
    24    13    14 1   
@<TRIPOS>SUBSTRUCTURE
     1 BPU         1 TEMP              0 ****  ****    0 ROOT
