@<TRIPOS>MOLECULE
BPV
    9     8     1     0     0
SMALL
No Charge or Current Charge


@<TRIPOS>ATOM
      1 Br          -1.9990    -0.1260     0.0510 br         1 BPV      -0.343000
      2 C3          -0.0960    -0.7860     0.0290 c3         1 BPV      -0.002400
      3 C2           0.9820     0.3170     0.0220 c          1 BPV       0.420100
      4 O3           0.6840     1.5170     0.0300 o          1 BPV      -0.524100
      5 C1           2.5100    -0.2020     0.0030 c          1 BPV       0.655000
      6 O2           3.4160     0.6300    -0.0030 o          1 BPV      -0.689000
      7 O1           2.7170    -1.4140    -0.0040 o          1 BPV      -0.689000
      8 H3           0.0440    -1.4130     0.9180 h1         1 BPV       0.086200
      9 H3A          0.0260    -1.4060    -0.8680 h1         1 BPV       0.086200
@<TRIPOS>BOND
     1     1     2 1   
     2     2     3 1   
     3     2     8 1   
     4     2     9 1   
     5     3     4 2   
     6     3     5 1   
     7     5     6 1   
     8     5     7 1   
@<TRIPOS>SUBSTRUCTURE
     1 BPV         1 TEMP              0 ****  ****    0 ROOT
