@<TRIPOS>MOLECULE
BPV
    9     8     1     0     0
SMALL
abcg2


@<TRIPOS>ATOM
      1 BR          -1.8690    -0.0900     0.0400 br         1 BPV      -0.343000
      2 C3          -0.0500    -0.7890     0.0290 c3         1 BPV      -0.002400
      3 C2           0.9870     0.3090     0.0250 c          1 BPV       0.420100
      4 O3           0.7100     1.4780     0.0410 o          1 BPV      -0.524100
      5 C1           2.4620    -0.1970     0.0010 c          1 BPV       0.655000
      6 O2           3.3260     0.6850    -0.0110 o          1 BPV      -0.689000
      7 O1           2.5870    -1.4320    -0.0030 o          1 BPV      -0.689000
      8 H3           0.0700    -1.4240     0.9070 h1         1 BPV       0.086200
      9 H3A          0.0610    -1.4240    -0.8510 h1         1 BPV       0.086200
@<TRIPOS>BOND
     1     1     2 1   
     2     2     3 1   
     3     2     8 1   
     4     2     9 1   
     5     3     4 2   
     6     3     5 1   
     7     5     6 1   
     8     5     7 1   
@<TRIPOS>SUBSTRUCTURE
     1 BPV         1 TEMP              0 ****  ****    0 ROOT
