@<TRIPOS>MOLECULE
BPW
   23    23     1     0     0
SMALL
No Charge or Current Charge


@<TRIPOS>ATOM
      1 C4          -1.6260    -1.2060    -0.2180 ca         1 BPW      -0.101500
      2 C5          -1.6370     1.2210    -0.0450 ca         1 BPW      -0.101500
      3 C7          -0.2580    -1.1770    -0.5440 ca         1 BPW      -0.100000
      4 C8          -0.2690     1.2510    -0.3700 ca         1 BPW      -0.100000
      5 C1          -2.3140    -0.0070     0.0310 ca         1 BPW       0.118000
      6 Cl2         -4.0240    -0.0440     0.4390 cl         1 BPW      -0.207000
      7 C3           0.4260     0.0520    -0.6230 ca         1 BPW      -0.074300
      8 C11          2.8030     0.0100     0.2850 c3         1 BPW      -0.077400
      9 C9           4.3080     0.0400    -0.0470 c3         1 BPW       0.148800
     10 N6           5.1340    -0.0280     1.1720 n8         1 BPW      -0.995200
     11 H1          -2.1520    -2.1560    -0.1570 ha         1 BPW       0.128500
     12 H2          -2.1710     2.1480     0.1500 ha         1 BPW       0.128500
     13 H3           0.2690    -2.1100    -0.7330 ha         1 BPW       0.116000
     14 H4           0.2490     2.2060    -0.4250 ha         1 BPW       0.116000
     15 H5           2.1570    -0.7510    -1.6390 hc         1 BPW       0.047200
     16 H6           2.1450     1.0000    -1.5270 hc         1 BPW       0.047200
     17 H7           2.5600     0.8510     0.9470 hc         1 BPW       0.051200
     18 H8           2.5690    -0.9110     0.8350 hc         1 BPW       0.051200
     19 H9           4.5630    -0.8110    -0.6930 h1         1 BPW       0.025700
     20 H10          4.5500     0.9690    -0.5830 h1         1 BPW       0.025700
     21 H11          4.9770    -0.9330     1.6320 hn         1 BPW       0.392000
     22 H12          6.1250    -0.0650     0.9030 hn         1 BPW       0.392000
     23 C10          1.9090     0.0840    -0.9710 c3         1 BPW      -0.032100
@<TRIPOS>BOND
     1     1     3 ar  
     2     1     5 ar  
     3     1    11 1   
     4     2     4 ar  
     5     2     5 ar  
     6     2    12 1   
     7     3     7 ar  
     8     3    13 1   
     9     4     7 ar  
    10     4    14 1   
    11     5     6 1   
    12     7    23 1   
    13     8     9 1   
    14     8    17 1   
    15     8    18 1   
    16     8    23 1   
    17     9    10 1   
    18     9    19 1   
    19     9    20 1   
    20    10    21 1   
    21    10    22 1   
    22    15    23 1   
    23    16    23 1   
@<TRIPOS>SUBSTRUCTURE
     1 BPW         1 TEMP              0 ****  ****    0 ROOT
