@<TRIPOS>MOLECULE
BPW
   23    23     1     0     0
SMALL
bcc


@<TRIPOS>ATOM
      1 C4          -1.5340    -1.1940    -0.1100 ca         1 BPW      -0.119500
      2 C5          -1.6490     1.2140    -0.1430 ca         1 BPW      -0.119500
      3 C7          -0.1900    -1.1240    -0.4460 ca         1 BPW      -0.118000
      4 C8          -0.3030     1.2620    -0.4790 ca         1 BPW      -0.118000
      5 C1          -2.2530    -0.0180     0.0390 ca         1 BPW       0.026400
      6 CL2         -3.9360    -0.0940     0.4560 cl         1 BPW      -0.115400
      7 C3           0.4480     0.1010    -0.6350 ca         1 BPW      -0.074300
      8 C11          2.7830    -0.0290     0.2900 c3         1 BPW      -0.077400
      9 C9           4.2680     0.0230    -0.0320 c3         1 BPW       0.148800
     10 N6           5.0670    -0.1720     1.1690 n8         1 BPW      -0.884800
     11 H1          -2.0150    -2.1510     0.0330 ha         1 BPW       0.146500
     12 H2          -2.2160     2.1280    -0.0260 ha         1 BPW       0.146500
     13 H3           0.3680    -2.0450    -0.5660 ha         1 BPW       0.134000
     14 H4           0.1650     2.2280    -0.6260 ha         1 BPW       0.134000
     15 H5           2.1640    -0.6060    -1.6920 hc         1 BPW       0.047200
     16 H6           2.1500     1.1240    -1.4140 hc         1 BPW       0.047200
     17 H7           2.5460     0.7410     1.0290 hc         1 BPW       0.051200
     18 H8           2.5430    -0.9930     0.7520 hc         1 BPW       0.051200
     19 H9           4.4850    -0.7040    -0.8290 h1         1 BPW       0.025700
     20 H10          4.5080     1.0070    -0.4440 h1         1 BPW       0.025700
     21 H11          4.9300    -1.1140     1.5130 hn         1 BPW       0.336800
     22 H12          6.0500    -0.1120     0.9330 hn         1 BPW       0.336800
     23 C10          1.9140     0.1610    -0.9540 c3         1 BPW      -0.032100
@<TRIPOS>BOND
     1     1     3 ar  
     2     1     5 ar  
     3     1    11 1   
     4     2     4 ar  
     5     2     5 ar  
     6     2    12 1   
     7     3     7 ar  
     8     3    13 1   
     9     4     7 ar  
    10     4    14 1   
    11     5     6 1   
    12     7    23 1   
    13     8     9 1   
    14     8    17 1   
    15     8    18 1   
    16     8    23 1   
    17     9    10 1   
    18     9    19 1   
    19     9    20 1   
    20    10    21 1   
    21    10    22 1   
    22    15    23 1   
    23    16    23 1   
@<TRIPOS>SUBSTRUCTURE
     1 BPW         1 TEMP              0 ****  ****    0 ROOT
