@<TRIPOS>MOLECULE
BPX
   33    33     1     0     0
SMALL
No Charge or Current Charge


@<TRIPOS>ATOM
      1 CAJ         -2.5960    -1.6360    -0.6120 ca         1 BPX      -0.093500
      2 CAI         -3.9070    -2.0360    -0.9260 ca         1 BPX      -0.121500
      3 CAE         -4.9940    -1.5070    -0.2110 ca         1 BPX      -0.130000
      4 CAD         -4.7700    -0.5780     0.8190 ca         1 BPX      -0.121500
      5 CAL         -3.4590    -0.1790     1.1340 ca         1 BPX      -0.093500
      6 CAK         -2.3640    -0.7040     0.4190 ca         1 BPX      -0.040300
      7 CAF         -0.9390    -0.2770     0.7620 c3         1 BPX      -0.015100
      8 CAB         -0.3230     0.6860    -0.2940 c3         1 BPX      -0.185700
      9 CAC         -1.2490     1.9100    -0.5160 c          1 BPX       0.715000
     10 OAO         -1.4320     2.6800     0.4150 o          1 BPX      -0.726000
     11 OAN         -1.7210     2.0780    -1.6300 o          1 BPX      -0.726000
     12 CAA          1.1340     1.1790     0.0310 c3         1 BPX      -0.117400
     13 CAG          2.3000     0.1480     0.0660 c3         1 BPX       0.415000
     14 OAP          2.1990    -0.6590     1.2150 oh         1 BPX      -0.633500
     15 OAQ          2.2160    -0.7140    -1.0440 oh         1 BPX      -0.633500
     16 CAH          3.6660     0.8500     0.0720 c3         1 BPX      -0.133400
     17 NAM          4.8320    -0.1290     0.1170 no         1 BPX       0.604000
     18 OAS          5.3800    -0.3980    -0.9600 o          1 BPX      -0.412500
     19 OAR          5.3580    -0.3250     1.2210 o          1 BPX      -0.412500
     20 HAJ         -1.7600    -2.0520    -1.1700 ha         1 BPX       0.117000
     21 HAI         -4.0790    -2.7550    -1.7230 ha         1 BPX       0.094000
     22 HAE         -6.0080    -1.8160    -0.4540 ha         1 BPX       0.090000
     23 HAD         -5.6100    -0.1680     1.3730 ha         1 BPX       0.094000
     24 HAL         -3.2950     0.5430     1.9310 ha         1 BPX       0.117000
     25 HAF         -0.9130     0.2010     1.7490 hc         1 BPX       0.037700
     26 HAFA        -0.3270    -1.1820     0.8390 hc         1 BPX       0.037700
     27 HAB         -0.2940     0.1470    -1.2490 hc         1 BPX       0.046700
     28 HAA          1.3910     1.9310    -0.7270 hc         1 BPX       0.054700
     29 HAAA         1.1230     1.7250     0.9840 hc         1 BPX       0.054700
     30 HOAP         1.2590    -0.6370     1.4810 ho         1 BPX       0.467500
     31 HOAQ         1.2660    -0.7700    -1.2690 ho         1 BPX       0.467500
     32 HAH          3.7990     1.4480    -0.8360 h1         1 BPX       0.091700
     33 HAHA         3.7670     1.4960     0.9500 h1         1 BPX       0.091700
@<TRIPOS>BOND
     1     1     2 ar  
     2     1     6 ar  
     3     1    20 1   
     4     2     3 ar  
     5     2    21 1   
     6     3     4 ar  
     7     3    22 1   
     8     4     5 ar  
     9     4    23 1   
    10     5     6 ar  
    11     5    24 1   
    12     6     7 1   
    13     7     8 1   
    14     7    25 1   
    15     7    26 1   
    16     8     9 1   
    17     8    12 1   
    18     8    27 1   
    19     9    10 1   
    20     9    11 1   
    21    12    13 1   
    22    12    28 1   
    23    12    29 1   
    24    13    14 1   
    25    13    15 1   
    26    13    16 1   
    27    14    30 1   
    28    15    31 1   
    29    16    17 1   
    30    16    32 1   
    31    16    33 1   
    32    17    18 1   
    33    17    19 1   
@<TRIPOS>SUBSTRUCTURE
     1 BPX         1 TEMP              0 ****  ****    0 ROOT
