@<TRIPOS>MOLECULE
BPX
   33    33     1     0     0
SMALL
bcc


@<TRIPOS>ATOM
      1 CAJ         -2.5710    -1.7340    -0.5000 ca         1 BPX      -0.111500
      2 CAI         -3.8600    -2.1270    -0.8350 ca         1 BPX      -0.139500
      3 CAE         -4.9530    -1.5220    -0.2270 ca         1 BPX      -0.148000
      4 CAD         -4.7420    -0.5240     0.7150 ca         1 BPX      -0.139500
      5 CAL         -3.4500    -0.1320     1.0430 ca         1 BPX      -0.111500
      6 CAK         -2.3450    -0.7310     0.4420 ca         1 BPX      -0.040300
      7 CAF         -0.9420    -0.3050     0.7730 c3         1 BPX      -0.015100
      8 CAB         -0.3620     0.6460    -0.2820 c3         1 BPX      -0.185700
      9 CAC         -1.2570     1.8970    -0.4380 c          1 BPX       0.925600
     10 OAO         -1.4660     2.5560     0.6020 o          1 BPX      -0.831300
     11 OAN         -1.6710     2.1670    -1.5820 o          1 BPX      -0.831300
     12 CAA          1.0530     1.1330     0.0510 c3         1 BPX      -0.117400
     13 CAG          2.1740     0.0860     0.0240 c3         1 BPX       0.368600
     14 OAP          2.1270    -0.8180     1.0810 oh         1 BPX      -0.571300
     15 OAQ          2.1270    -0.7400    -1.0930 oh         1 BPX      -0.571300
     16 CAH          3.5180     0.8710     0.0610 c3         1 BPX      -0.162700
     17 NAM          4.6530    -0.0730     0.0960 no         1 BPX       0.253300
     18 OAS          5.0860    -0.4720    -0.9590 o          1 BPX      -0.222500
     19 OAR          5.0640    -0.4260     1.1760 o          1 BPX      -0.222500
     20 HAJ         -1.7250    -2.2180    -0.9750 ha         1 BPX       0.135000
     21 HAI         -4.0090    -2.9100    -1.5680 ha         1 BPX       0.112000
     22 HAE         -5.9590    -1.8280    -0.4820 ha         1 BPX       0.108000
     23 HAD         -5.5860    -0.0490     1.1990 ha         1 BPX       0.112000
     24 HAL         -3.2960     0.6510     1.7740 ha         1 BPX       0.135000
     25 HAF         -0.9240     0.1880     1.7480 hc         1 BPX       0.037700
     26 HAFA        -0.3130    -1.1920     0.8530 hc         1 BPX       0.037700
     27 HAB         -0.3380     0.1230    -1.2420 hc         1 BPX       0.046700
     28 HAA          1.3200     1.9160    -0.6680 hc         1 BPX       0.054700
     29 HAAA         1.0510     1.6230     1.0290 hc         1 BPX       0.054700
     30 HOAP         1.9860    -0.3420     1.9060 ho         1 BPX       0.428500
     31 HOAQ         2.0530    -0.2030    -1.8890 ho         1 BPX       0.428500
     32 HAH          3.6290     1.4930    -0.8250 h1         1 BPX       0.091700
     33 HAHA         3.5750     1.4960     0.9510 h1         1 BPX       0.091700
@<TRIPOS>BOND
     1     1     2 ar  
     2     1     6 ar  
     3     1    20 1   
     4     2     3 ar  
     5     2    21 1   
     6     3     4 ar  
     7     3    22 1   
     8     4     5 ar  
     9     4    23 1   
    10     5     6 ar  
    11     5    24 1   
    12     6     7 1   
    13     7     8 1   
    14     7    25 1   
    15     7    26 1   
    16     8     9 1   
    17     8    12 1   
    18     8    27 1   
    19     9    10 1   
    20     9    11 1   
    21    12    13 1   
    22    12    28 1   
    23    12    29 1   
    24    13    14 1   
    25    13    15 1   
    26    13    16 1   
    27    14    30 1   
    28    15    31 1   
    29    16    17 1   
    30    16    32 1   
    31    16    33 1   
    32    17    18 1   
    33    17    19 1   
@<TRIPOS>SUBSTRUCTURE
     1 BPX         1 TEMP              0 ****  ****    0 ROOT
