@<TRIPOS>MOLECULE
BPY
   24    25     1     0     0
SMALL
bcc


@<TRIPOS>ATOM
      1 CK1         -1.7530    -0.3370     0.8200 ca         1 BPY      -0.120000
      2 CK2         -0.4550    -0.1210     0.3510 cp         1 BPY      -0.084000
      3 CK3          0.5770     0.0450     1.2730 ca         1 BPY       0.057100
      4 CK4          0.3160    -0.0230     2.6480 ca         1 BPY       0.119100
      5 CK5         -0.9760    -0.2530     3.0920 ca         1 BPY      -0.137000
      6 CK6         -2.0100    -0.4060     2.1770 ca         1 BPY      -0.125000
      7 CK7         -0.1870    -0.0470    -1.1030 cp         1 BPY      -0.049000
      8 CK8         -0.8870     0.8620    -1.8980 ca         1 BPY      -0.122000
      9 CK9         -0.6610     0.9270    -3.2650 ca         1 BPY      -0.128000
     10 CKA          0.2710     0.0870    -3.8590 ca         1 BPY      -0.123000
     11 CKB          0.9710    -0.8240    -3.0790 ca         1 BPY      -0.128000
     12 CKC          0.7430    -0.8920    -1.7110 ca         1 BPY      -0.122000
     13 OK1          1.3020     0.1400     3.5560 oh         1 BPY      -0.497100
     14 OK2          1.8670     0.2910     0.9380 oh         1 BPY      -0.526100
     15 HCK1        -2.5540    -0.4650     0.1040 ha         1 BPY       0.137000
     16 HCK5        -1.1660    -0.3060     4.1570 ha         1 BPY       0.149000
     17 HCK6        -3.0170    -0.5850     2.5300 ha         1 BPY       0.137000
     18 HCK8        -1.6090     1.5270    -1.4380 ha         1 BPY       0.137500
     19 HCK9        -1.2110     1.6400    -3.8660 ha         1 BPY       0.133500
     20 HC10         0.4500     0.1400    -4.9250 ha         1 BPY       0.133000
     21 HC11         1.6920    -1.4890    -3.5360 ha         1 BPY       0.133500
     22 HC12         1.2700    -1.6320    -1.1210 ha         1 BPY       0.137500
     23 H0K1         2.1460     0.2880     3.1130 ho         1 BPY       0.443000
     24 HOK2         1.9530     0.4930    -0.0020 ho         1 BPY       0.444000
@<TRIPOS>BOND
     1     1     2 ar  
     2     1     6 ar  
     3     1    15 1   
     4     2     3 ar  
     5     2     7 1   
     6     3     4 ar  
     7     3    14 1   
     8     4     5 ar  
     9     4    13 1   
    10     5     6 ar  
    11     5    16 1   
    12     6    17 1   
    13     7     8 ar  
    14     7    12 ar  
    15     8     9 ar  
    16     8    18 1   
    17     9    10 ar  
    18     9    19 1   
    19    10    11 ar  
    20    10    20 1   
    21    11    12 ar  
    22    11    21 1   
    23    12    22 1   
    24    13    23 1   
    25    14    24 1   
@<TRIPOS>SUBSTRUCTURE
     1 BPY         1 TEMP              0 ****  ****    0 ROOT
