@<TRIPOS>MOLECULE
BPY
   24    25     1     0     0
SMALL
No Charge or Current Charge


@<TRIPOS>ATOM
      1 CK1         -1.7590    -0.2930     0.8420 ca         1 BPY      -0.102000
      2 CK2         -0.4380    -0.1000     0.3680 cp         1 BPY      -0.084000
      3 CK3          0.6050     0.0310     1.3250 ca         1 BPY       0.057100
      4 CK4          0.3210    -0.0490     2.7050 ca         1 BPY       0.119100
      5 CK5         -0.9940    -0.2530     3.1510 ca         1 BPY      -0.119000
      6 CK6         -2.0360    -0.3710     2.2180 ca         1 BPY      -0.107000
      7 CK7         -0.1800    -0.0340    -1.1030 cp         1 BPY      -0.049000
      8 CK8         -0.9270     0.8430    -1.9260 ca         1 BPY      -0.104000
      9 CK9         -0.6960     0.9090    -3.3110 ca         1 BPY      -0.110000
     10 CKA          0.2820     0.0900    -3.9000 ca         1 BPY      -0.105000
     11 CKB          1.0250    -0.7970    -3.1030 ca         1 BPY      -0.110000
     12 CKC          0.7940    -0.8600    -1.7180 ca         1 BPY      -0.104000
     13 OK1          1.3360     0.0830     3.6060 oh         1 BPY      -0.536100
     14 OK2          1.8970     0.2720     0.9300 oh         1 BPY      -0.565100
     15 HCK1        -2.5760    -0.3950     0.1300 ha         1 BPY       0.119000
     16 HCK5        -1.2050    -0.3120     4.2160 ha         1 BPY       0.131000
     17 HCK6        -3.0580    -0.5260     2.5590 ha         1 BPY       0.119000
     18 HCK8        -1.6850     1.4850    -1.4810 ha         1 BPY       0.119500
     19 HCK9        -1.2750     1.5930    -3.9270 ha         1 BPY       0.115500
     20 HC10         0.4600     0.1390    -4.9720 ha         1 BPY       0.115000
     21 HC11         1.7750    -1.4390    -3.5600 ha         1 BPY       0.115500
     22 HC12         1.3620    -1.5680    -1.1170 ha         1 BPY       0.119500
     23 H0K1         2.1500     0.2250     3.0700 ho         1 BPY       0.482000
     24 HOK2         1.8970     0.3870    -0.0460 ho         1 BPY       0.483000
@<TRIPOS>BOND
     1     1     2 ar  
     2     1     6 ar  
     3     1    15 1   
     4     2     3 ar  
     5     2     7 1   
     6     3     4 ar  
     7     3    14 1   
     8     4     5 ar  
     9     4    13 1   
    10     5     6 ar  
    11     5    16 1   
    12     6    17 1   
    13     7     8 ar  
    14     7    12 ar  
    15     8     9 ar  
    16     8    18 1   
    17     9    10 ar  
    18     9    19 1   
    19    10    11 ar  
    20    10    20 1   
    21    11    12 ar  
    22    11    21 1   
    23    12    22 1   
    24    13    23 1   
    25    14    24 1   
@<TRIPOS>SUBSTRUCTURE
     1 BPY         1 TEMP              0 ****  ****    0 ROOT
