@<TRIPOS>MOLECULE
BPZ
   40    42     1     0     0
SMALL
No Charge or Current Charge


@<TRIPOS>ATOM
      1 O2           5.1340    -1.5700     0.1890 oh         1 BPZ      -0.535100
      2 C16          3.9180    -0.9580     0.1420 ca         1 BPZ       0.135600
      3 C15          2.9810    -1.1610     1.1630 ca         1 BPZ      -0.175750
      4 C14          1.7290    -0.5250     1.1060 ca         1 BPZ      -0.068250
      5 C17          3.6010    -0.1240    -0.9370 ca         1 BPZ      -0.175750
      6 C18          2.3500     0.5140    -0.9990 ca         1 BPZ      -0.068250
      7 C7           1.3910     0.3290     0.0300 ca         1 BPZ      -0.102800
      8 C5          -0.0150     0.9980     0.0170 c6         1 BPZ       0.066600
      9 C8          -0.1150     1.9470     1.2700 c6         1 BPZ      -0.065900
     10 C1          -1.4340     2.7710     1.3390 c6         1 BPZ      -0.074900
     11 C4          -0.2290     1.9320    -1.2330 c6         1 BPZ      -0.065900
     12 C3          -1.5810     2.6870    -1.1960 c6         1 BPZ      -0.074900
     13 C2          -1.6620     3.5920     0.0520 c6         1 BPZ      -0.073400
     14 C6          -1.0570    -0.1670     0.0120 ca         1 BPZ      -0.102800
     15 C13         -1.2200    -0.9480    -1.1580 ca         1 BPZ      -0.068250
     16 C12         -2.1310    -2.0180    -1.1980 ca         1 BPZ      -0.175750
     17 C11         -2.8830    -2.3420    -0.0630 ca         1 BPZ       0.135600
     18 O1          -3.7660    -3.3790    -0.0920 oh         1 BPZ      -0.535100
     19 C10         -2.7140    -1.6070     1.1150 ca         1 BPZ      -0.175750
     20 C9          -1.8040    -0.5360     1.1600 ca         1 BPZ      -0.068250
     21 HO2          5.1770    -2.1100     1.0070 ho         1 BPZ       0.463000
     22 H15          3.2130    -1.8110     2.0040 ha         1 BPZ       0.119250
     23 H14          1.0150    -0.7060     1.9060 ha         1 BPZ       0.113500
     24 H17          4.3260     0.0300    -1.7320 ha         1 BPZ       0.119250
     25 H18          2.1490     1.1470    -1.8590 ha         1 BPZ       0.113500
     26 H8           0.0180     1.3890     2.2060 hc         1 BPZ       0.041700
     27 H8A          0.7290     2.6510     1.2440 hc         1 BPZ       0.041700
     28 H1          -2.2970     2.1140     1.5030 hc         1 BPZ       0.041700
     29 H1A         -1.4000     3.4470     2.2040 hc         1 BPZ       0.041700
     30 H4           0.5730     2.6830    -1.2710 hc         1 BPZ       0.041700
     31 H4A         -0.1550     1.3760    -2.1750 hc         1 BPZ       0.041700
     32 H3          -1.6890     3.2990    -2.1020 hc         1 BPZ       0.041700
     33 H3A         -2.4160     1.9740    -1.2010 hc         1 BPZ       0.041700
     34 H2          -2.6400     4.0910     0.0930 hc         1 BPZ       0.038200
     35 H2A         -0.9070     4.3880    -0.0180 hc         1 BPZ       0.038200
     36 H13         -0.6290    -0.7430    -2.0460 ha         1 BPZ       0.113500
     37 H12         -2.2380    -2.5950    -2.1140 ha         1 BPZ       0.119250
     38 HO1         -3.7480    -3.7760    -0.9890 ho         1 BPZ       0.463000
     39 H10         -3.2840    -1.8690     2.0030 ha         1 BPZ       0.119250
     40 H9          -1.6900    -0.0130     2.1040 ha         1 BPZ       0.113500
@<TRIPOS>BOND
     1     1     2 1   
     2     1    21 1   
     3     2     3 ar  
     4     2     5 ar  
     5     3     4 ar  
     6     3    22 1   
     7     4     7 ar  
     8     4    23 1   
     9     5     6 ar  
    10     5    24 1   
    11     6     7 ar  
    12     6    25 1   
    13     7     8 1   
    14     8     9 1   
    15     8    11 1   
    16     8    14 1   
    17     9    10 1   
    18     9    26 1   
    19     9    27 1   
    20    10    13 1   
    21    10    28 1   
    22    10    29 1   
    23    11    12 1   
    24    11    30 1   
    25    11    31 1   
    26    12    13 1   
    27    12    32 1   
    28    12    33 1   
    29    13    34 1   
    30    13    35 1   
    31    14    15 ar  
    32    14    20 ar  
    33    15    16 ar  
    34    15    36 1   
    35    16    17 ar  
    36    16    37 1   
    37    17    18 1   
    38    17    19 ar  
    39    18    38 1   
    40    19    20 ar  
    41    19    39 1   
    42    20    40 1   
@<TRIPOS>SUBSTRUCTURE
     1 BPZ         1 TEMP              0 ****  ****    0 ROOT
