@<TRIPOS>MOLECULE
BPZ
   40    42     1     0     0
SMALL
bcc


@<TRIPOS>ATOM
      1 O2           5.1090    -1.4680     0.1670 oh         1 BPZ      -0.496100
      2 C16          3.8800    -0.9090     0.1490 ca         1 BPZ       0.135600
      3 C15          2.9320    -1.1370     1.1450 ca         1 BPZ      -0.193750
      4 C14          1.6900    -0.5310     1.0690 ca         1 BPZ      -0.086250
      5 C17          3.5540    -0.0730    -0.9110 ca         1 BPZ      -0.193750
      6 C18          2.3030     0.5290    -0.9670 ca         1 BPZ      -0.086250
      7 C7           1.3430     0.3220     0.0200 ca         1 BPZ      -0.102800
      8 C5          -0.0380     0.9800     0.0140 c6         1 BPZ       0.066600
      9 C8          -0.1350     1.8910     1.2590 c6         1 BPZ      -0.065900
     10 C1          -1.4020     2.7430     1.3220 c6         1 BPZ      -0.074900
     11 C4          -0.2310     1.8850    -1.2160 c6         1 BPZ      -0.065900
     12 C3          -1.5360     2.6710    -1.1740 c6         1 BPZ      -0.074900
     13 C2          -1.5870     3.5680     0.0560 c6         1 BPZ      -0.073400
     14 C6          -1.0720    -0.1480     0.0070 ca         1 BPZ      -0.102800
     15 C13         -1.2260    -0.9340    -1.1360 ca         1 BPZ      -0.086250
     16 C12         -2.1020    -2.0050    -1.1850 ca         1 BPZ      -0.193750
     17 C11         -2.8610    -2.3360    -0.0650 ca         1 BPZ       0.135600
     18 O1          -3.7330    -3.3660    -0.0480 oh         1 BPZ      -0.496100
     19 C10         -2.7160    -1.5790     1.0910 ca         1 BPZ      -0.193750
     20 C9          -1.8330    -0.5070     1.1170 ca         1 BPZ      -0.086250
     21 HO2          5.2150    -2.0170     0.9520 ho         1 BPZ       0.424000
     22 H15          3.1620    -1.7910     1.9800 ha         1 BPZ       0.137250
     23 H14          0.9710    -0.7340     1.8530 ha         1 BPZ       0.131500
     24 H17          4.2790     0.1100    -1.6950 ha         1 BPZ       0.137250
     25 H18          2.0950     1.1730    -1.8100 ha         1 BPZ       0.131500
     26 H8          -0.0280     1.3080     2.1770 hc         1 BPZ       0.041700
     27 H8A          0.7330     2.5570     1.2330 hc         1 BPZ       0.041700
     28 H1          -2.2810     2.1070     1.4600 hc         1 BPZ       0.041700
     29 H1A         -1.3510     3.3930     2.1990 hc         1 BPZ       0.041700
     30 H4           0.5970     2.6010    -1.2560 hc         1 BPZ       0.041700
     31 H4A         -0.1740     1.3070    -2.1410 hc         1 BPZ       0.041700
     32 H3          -1.6230     3.2690    -2.0850 hc         1 BPZ       0.041700
     33 H3A         -2.3890     1.9850    -1.1690 hc         1 BPZ       0.041700
     34 H2          -2.5320     4.1150     0.0940 hc         1 BPZ       0.038200
     35 H2A         -0.7930     4.3190    -0.0140 hc         1 BPZ       0.038200
     36 H13         -0.6390    -0.7220    -2.0220 ha         1 BPZ       0.131500
     37 H12         -2.1870    -2.5870    -2.0960 ha         1 BPZ       0.137250
     38 HO1         -3.7450    -3.8090    -0.9040 ho         1 BPZ       0.424000
     39 H10         -3.2940    -1.8250     1.9730 ha         1 BPZ       0.137250
     40 H9          -1.7550     0.0480     2.0420 ha         1 BPZ       0.131500
@<TRIPOS>BOND
     1     1     2 1   
     2     1    21 1   
     3     2     3 ar  
     4     2     5 ar  
     5     3     4 ar  
     6     3    22 1   
     7     4     7 ar  
     8     4    23 1   
     9     5     6 ar  
    10     5    24 1   
    11     6     7 ar  
    12     6    25 1   
    13     7     8 1   
    14     8     9 1   
    15     8    11 1   
    16     8    14 1   
    17     9    10 1   
    18     9    26 1   
    19     9    27 1   
    20    10    13 1   
    21    10    28 1   
    22    10    29 1   
    23    11    12 1   
    24    11    30 1   
    25    11    31 1   
    26    12    13 1   
    27    12    32 1   
    28    12    33 1   
    29    13    34 1   
    30    13    35 1   
    31    14    15 ar  
    32    14    20 ar  
    33    15    16 ar  
    34    15    36 1   
    35    16    17 ar  
    36    16    37 1   
    37    17    18 1   
    38    17    19 ar  
    39    18    38 1   
    40    19    20 ar  
    41    19    39 1   
    42    20    40 1   
@<TRIPOS>SUBSTRUCTURE
     1 BPZ         1 TEMP              0 ****  ****    0 ROOT
