@<TRIPOS>MOLECULE
BQ0
   79    84     1     0     0
SMALL
No Charge or Current Charge


@<TRIPOS>ATOM
      1 C12          4.0770    -4.2420    -1.0830 c3         1 BQ0      -0.080100
      2 C14          2.9340    -2.6900     1.2060 c5         1 BQ0       0.194500
      3 C15          4.2580    -2.1010     1.7630 c5         1 BQ0      -0.096900
      4 C16          4.0960    -2.3110     3.3020 c5         1 BQ0      -0.078900
      5 C17          2.5550    -2.4470     3.5350 c5         1 BQ0      -0.078900
      6 C18          1.9340    -2.0130     2.1810 c5         1 BQ0      -0.096900
      7 C19         -0.8780     1.1250    -0.4810 cc         1 BQ0       0.495000
      8 C21         -3.0280     1.0120    -0.1610 cd         1 BQ0       0.474500
      9 C24         -0.7370     3.5580    -0.1440 ca         1 BQ0      -0.011200
     10 C25         -0.7930     4.6180    -1.0830 ca         1 BQ0      -0.043300
     11 C28          0.7800     4.8740     1.2450 ca         1 BQ0      -0.112000
     12 C29          0.0510     3.6960     1.0160 ca         1 BQ0      -0.085000
     13 C31         -1.6210     4.5040    -2.3610 c3         1 BQ0      -0.052800
     14 C32         -4.4810     0.5310     0.0350 c          1 BQ0       0.550600
     15 C01          1.4370     1.6560    -1.3350 ca         1 BQ0      -0.068000
     16 C02          0.5380     0.7810    -0.6890 ca         1 BQ0      -0.160500
     17 C03          0.9950    -0.5090    -0.3460 ca         1 BQ0      -0.035000
     18 C04          2.3380    -0.8890    -0.5320 ca         1 BQ0       0.202000
     19 C05          3.2540     0.0260    -1.1210 ca         1 BQ0      -0.038000
     20 C06          2.7660     1.2710    -1.5720 ca         1 BQ0      -0.150000
     21 N07          2.7790    -2.2050    -0.2160 nh         1 BQ0      -0.758400
     22 C08          3.6410    -2.7630    -1.3120 c6         1 BQ0       0.128500
     23 C09          4.8480    -1.8260    -1.6410 c          1 BQ0       0.534000
     24 N10          4.5630    -0.4410    -1.5400 n          1 BQ0      -0.220400
     25 C11          5.6540     0.5350    -1.7670 c3         1 BQ0       0.081300
     26 O13          5.9600    -2.2530    -1.9470 o          1 BQ0      -0.531000
     27 N20         -1.8620     0.2540    -0.3740 nd         1 BQ0      -0.688000
     28 N22         -2.7670     2.3240    -0.1070 nc         1 BQ0      -0.468800
     29 N23         -1.4400     2.3690    -0.3510 na         1 BQ0       0.040500
     30 C26         -0.0580     5.7950    -0.8400 ca         1 BQ0      -0.114000
     31 C27          0.7310     5.9280     0.3180 ca         1 BQ0      -0.056300
     32 C30          1.5180     7.2060     0.5650 c3         1 BQ0      -0.050800
     33 O33         -5.3980     1.3240     0.2620 o          1 BQ0      -0.580100
     34 N34         -4.7970    -0.8660    -0.0370 n          1 BQ0      -0.390800
     35 C35         -6.1420    -1.3200     0.4570 c6         1 BQ0       0.097500
     36 C36         -6.5440    -2.7850     0.1440 c6         1 BQ0       0.138300
     37 N37         -5.4420    -3.7370     0.4070 n3         1 BQ0      -0.715600
     38 C38         -4.2990    -3.3860    -0.4670 c6         1 BQ0       0.138300
     39 C39         -3.7700    -1.9450    -0.2270 c6         1 BQ0       0.097500
     40 C40         -5.8620    -5.1460     0.2460 c3         1 BQ0       0.153100
     41 H1           3.2090    -4.8820    -0.8850 hc         1 BQ0       0.051700
     42 H2           4.5790    -4.6430    -1.9710 hc         1 BQ0       0.051700
     43 H3           4.7720    -4.3400    -0.2410 hc         1 BQ0       0.051700
     44 H4           2.8900    -3.7860     1.2910 h1         1 BQ0       0.065700
     45 H5           5.1480    -2.6040     1.3700 hc         1 BQ0       0.051700
     46 H6           4.3610    -1.0340     1.5280 hc         1 BQ0       0.051700
     47 H7           4.6210    -3.2110     3.6400 hc         1 BQ0       0.043950
     48 H8           4.5200    -1.4680     3.8610 hc         1 BQ0       0.043950
     49 H9           2.2870    -3.4840     3.7730 hc         1 BQ0       0.043950
     50 H10          2.2030    -1.8280     4.3680 hc         1 BQ0       0.043950
     51 H11          1.9200    -0.9190     2.1080 hc         1 BQ0       0.051700
     52 H12          0.9080    -2.3790     2.0610 hc         1 BQ0       0.051700
     53 H13          1.3830     4.9660     2.1460 ha         1 BQ0       0.121000
     54 H14          0.0980     2.8880     1.7430 ha         1 BQ0       0.132000
     55 H15         -2.6930     4.4850    -2.1330 hc         1 BQ0       0.052700
     56 H16         -1.4440     5.3470    -3.0390 hc         1 BQ0       0.052700
     57 H17         -1.3770     3.5870    -2.9110 hc         1 BQ0       0.052700
     58 H18          1.1080     2.6240    -1.7030 ha         1 BQ0       0.124000
     59 H19          0.3010    -1.2330     0.0700 ha         1 BQ0       0.149000
     60 H20          3.4100     1.9530    -2.1220 ha         1 BQ0       0.124000
     61 H21          3.0440    -2.7650    -2.2360 h1         1 BQ0       0.083700
     62 H23          5.4760     1.4440    -1.1790 h1         1 BQ0       0.050367
     63 H24          6.6190     0.1160    -1.4560 h1         1 BQ0       0.050367
     64 H25          5.6990     0.7950    -2.8320 h1         1 BQ0       0.050367
     65 H27         -0.0970     6.6130    -1.5560 ha         1 BQ0       0.118000
     66 H28          0.9060     7.9450     1.0960 hc         1 BQ0       0.046700
     67 H29          2.4120     7.0150     1.1710 hc         1 BQ0       0.046700
     68 H30          1.8500     7.6590    -0.3760 hc         1 BQ0       0.046700
     69 H31         -6.1570    -1.1920     1.5480 h1         1 BQ0       0.068700
     70 H32         -6.9250    -0.6640     0.0510 h1         1 BQ0       0.068700
     71 H33         -7.4270    -3.0400     0.7490 h1         1 BQ0       0.040200
     72 H34         -6.8530    -2.8470    -0.9100 h1         1 BQ0       0.040200
     73 H36         -3.4680    -4.0910    -0.3170 h1         1 BQ0       0.040200
     74 H37         -4.5990    -3.4730    -1.5220 h1         1 BQ0       0.040200
     75 H38         -3.1470    -1.7060    -1.0980 h1         1 BQ0       0.068700
     76 H39         -3.1190    -1.9620     0.6580 h1         1 BQ0       0.068700
     77 H40         -6.1950    -5.3440    -0.7820 h1         1 BQ0       0.031367
     78 H41         -5.0310    -5.8270     0.4750 h1         1 BQ0       0.031367
     79 H42         -6.6900    -5.3830     0.9280 h1         1 BQ0       0.031367
@<TRIPOS>BOND
     1     1    22 1   
     2     1    41 1   
     3     1    42 1   
     4     1    43 1   
     5     2     3 1   
     6     2     6 1   
     7     2    21 1   
     8     2    44 1   
     9     3     4 1   
    10     3    45 1   
    11     3    46 1   
    12     4     5 1   
    13     4    47 1   
    14     4    48 1   
    15     5     6 1   
    16     5    49 1   
    17     5    50 1   
    18     6    51 1   
    19     6    52 1   
    20     7    16 1   
    21     7    27 2   
    22     7    29 1   
    23     8    14 1   
    24     8    27 1   
    25     8    28 2   
    26     9    10 ar  
    27     9    12 ar  
    28     9    29 1   
    29    10    13 1   
    30    10    30 ar  
    31    11    12 ar  
    32    11    31 ar  
    33    11    53 1   
    34    12    54 1   
    35    13    55 1   
    36    13    56 1   
    37    13    57 1   
    38    14    33 2   
    39    14    34 1   
    40    15    16 ar  
    41    15    20 ar  
    42    15    58 1   
    43    16    17 ar  
    44    17    18 ar  
    45    17    59 1   
    46    18    19 ar  
    47    18    21 1   
    48    19    20 ar  
    49    19    24 1   
    50    20    60 1   
    51    21    22 1   
    52    22    23 1   
    53    22    61 1   
    54    23    24 1   
    55    23    26 2   
    56    24    25 1   
    57    25    62 1   
    58    25    63 1   
    59    25    64 1   
    60    28    29 1   
    61    30    31 ar  
    62    30    65 1   
    63    31    32 1   
    64    32    66 1   
    65    32    67 1   
    66    32    68 1   
    67    34    35 1   
    68    34    39 1   
    69    35    36 1   
    70    35    69 1   
    71    35    70 1   
    72    36    37 1   
    73    36    71 1   
    74    36    72 1   
    75    37    38 1   
    76    37    40 1   
    77    38    39 1   
    78    38    73 1   
    79    38    74 1   
    80    39    75 1   
    81    39    76 1   
    82    40    77 1   
    83    40    78 1   
    84    40    79 1   
@<TRIPOS>SUBSTRUCTURE
     1 BQ0         1 TEMP              0 ****  ****    0 ROOT
