@<TRIPOS>MOLECULE
BQ0
   79    84     1     0     0
SMALL
bcc


@<TRIPOS>ATOM
      1 C12          4.8300    -4.1880    -0.0260 c3         1 BQ0      -0.080100
      2 C14          3.7350    -2.1840     1.8150 c5         1 BQ0       0.194500
      3 C15          4.8500    -1.1590     2.0630 c5         1 BQ0      -0.096900
      4 C16          4.8920    -1.0100     3.5940 c5         1 BQ0      -0.078900
      5 C17          3.5470    -1.5780     4.1100 c5         1 BQ0      -0.078900
      6 C18          2.6940    -1.7920     2.8610 c5         1 BQ0      -0.096900
      7 C19         -0.7850     0.3980    -0.0260 cc         1 BQ0       0.495000
      8 C21         -2.7760     0.1670     0.5860 cd         1 BQ0       0.474500
      9 C24         -0.8280     2.8990    -0.1370 ca         1 BQ0      -0.011200
     10 C25         -1.2510     3.6850    -1.2060 ca         1 BQ0      -0.043300
     11 C28          0.7290     4.5800     0.5660 ca         1 BQ0      -0.130000
     12 C29          0.1490     3.3360     0.7450 ca         1 BQ0      -0.103000
     13 C31         -2.2940     3.2120    -2.1740 c3         1 BQ0      -0.052800
     14 C32         -4.0480    -0.4060     1.1190 c          1 BQ0       0.617600
     15 C01          1.2880     0.9310    -1.3290 ca         1 BQ0      -0.086000
     16 C02          0.6050     0.1500    -0.3990 ca         1 BQ0      -0.160500
     17 C03          1.2540    -0.9440     0.1690 ca         1 BQ0      -0.053000
     18 C04          2.5790    -1.2240    -0.1210 ca         1 BQ0       0.063600
     19 C05          3.2670    -0.4140    -1.0370 ca         1 BQ0       0.054600
     20 C06          2.6010     0.6430    -1.6530 ca         1 BQ0      -0.168000
     21 N07          3.2360    -2.3290     0.4480 nh         1 BQ0      -0.620000
     22 C08          4.1460    -2.9280    -0.5230 c6         1 BQ0       0.128500
     23 C09          5.1450    -1.9120    -1.0590 c          1 BQ0       0.676500
     24 N10          4.6170    -0.6710    -1.2860 n          1 BQ0      -0.380000
     25 C11          5.4500     0.3680    -1.8640 c3         1 BQ0       0.081300
     26 O13          6.3080    -2.1770    -1.2960 o          1 BQ0      -0.606500
     27 N20         -1.6560    -0.5300     0.3120 nd         1 BQ0      -0.688000
     28 N22         -2.6510     1.4640     0.4490 nc         1 BQ0      -0.468800
     29 N23         -1.3840     1.6060     0.0510 na         1 BQ0       0.040500
     30 C26         -0.6560     4.9340    -1.3530 ca         1 BQ0      -0.132000
     31 C27          0.3300     5.4000    -0.4870 ca         1 BQ0      -0.056300
     32 C30          0.9330     6.7600    -0.6730 c3         1 BQ0      -0.050800
     33 O33         -4.6110     0.1880     2.0280 o          1 BQ0      -0.580100
     34 N34         -4.4810    -1.5670     0.5970 n          1 BQ0      -0.457800
     35 C35         -5.6650    -2.2170     1.1340 c6         1 BQ0       0.097500
     36 C36         -6.7990    -2.1750     0.1240 c6         1 BQ0       0.138300
     37 N37         -6.3850    -2.7770    -1.1270 n3         1 BQ0      -0.715600
     38 C38         -5.2200    -2.1030    -1.6620 c6         1 BQ0       0.138300
     39 C39         -4.0650    -2.1370    -0.6750 c6         1 BQ0       0.097500
     40 C40         -7.4640    -2.8170    -2.0870 c3         1 BQ0       0.153100
     41 H1           4.0900    -4.8660     0.3970 hc         1 BQ0       0.051700
     42 H2           5.3110    -4.7000    -0.8570 hc         1 BQ0       0.051700
     43 H3           5.5930    -3.9920     0.7270 hc         1 BQ0       0.051700
     44 H4           4.1080    -3.1700     2.1050 h1         1 BQ0       0.065700
     45 H5           5.8110    -1.4640     1.6450 hc         1 BQ0       0.051700
     46 H6           4.5770    -0.2070     1.5990 hc         1 BQ0       0.051700
     47 H7           5.7320    -1.5610     4.0180 hc         1 BQ0       0.043950
     48 H8           5.0280     0.0330     3.8810 hc         1 BQ0       0.043950
     49 H9           3.7110    -2.5310     4.6160 hc         1 BQ0       0.043950
     50 H10          3.0640    -0.9160     4.8290 hc         1 BQ0       0.043950
     51 H11          2.2080    -0.8540     2.5810 hc         1 BQ0       0.051700
     52 H12          1.9170    -2.5470     2.9900 hc         1 BQ0       0.051700
     53 H13          1.4970     4.9140     1.2530 ha         1 BQ0       0.139000
     54 H14          0.4610     2.7010     1.5640 ha         1 BQ0       0.150000
     55 H15         -3.2750     3.1450    -1.7030 hc         1 BQ0       0.052700
     56 H16         -2.3730     3.8970    -3.0160 hc         1 BQ0       0.052700
     57 H17         -2.0610     2.2210    -2.5700 hc         1 BQ0       0.052700
     58 H18          0.8050     1.7580    -1.8300 ha         1 BQ0       0.142000
     59 H19          0.7210    -1.5880     0.8550 ha         1 BQ0       0.167000
     60 H20          3.0990     1.2580    -2.3910 ha         1 BQ0       0.142000
     61 H21          3.5260    -3.2180    -1.3840 h1         1 BQ0       0.083700
     62 H23          5.1930     1.3300    -1.4280 h1         1 BQ0       0.050367
     63 H24          6.4920     0.1600    -1.6440 h1         1 BQ0       0.050367
     64 H25          5.3280     0.4270    -2.9470 h1         1 BQ0       0.050367
     65 H27         -0.9710     5.5610    -2.1800 ha         1 BQ0       0.136000
     66 H28          0.4370     7.4940    -0.0340 hc         1 BQ0       0.046700
     67 H29          1.9910     6.7670    -0.4110 hc         1 BQ0       0.046700
     68 H30          0.8350     7.1040    -1.7020 hc         1 BQ0       0.046700
     69 H31         -5.4100    -3.2580     1.3550 h1         1 BQ0       0.068700
     70 H32         -5.9630    -1.7390     2.0620 h1         1 BQ0       0.068700
     71 H33         -7.6500    -2.7310     0.5230 h1         1 BQ0       0.040200
     72 H34         -7.1280    -1.1290    -0.0090 h1         1 BQ0       0.040200
     73 H36         -4.9070    -2.6040    -2.5810 h1         1 BQ0       0.040200
     74 H37         -5.4350    -1.0520    -1.9230 h1         1 BQ0       0.040200
     75 H38         -3.2210    -1.5940    -1.0870 h1         1 BQ0       0.068700
     76 H39         -3.7440    -3.1690    -0.5100 h1         1 BQ0       0.068700
     77 H40         -7.8240    -1.8180    -2.3800 h1         1 BQ0       0.031367
     78 H41         -7.1390    -3.3320    -2.9930 h1         1 BQ0       0.031367
     79 H42         -8.3100    -3.3690    -1.6750 h1         1 BQ0       0.031367
@<TRIPOS>BOND
     1     1    22 1   
     2     1    41 1   
     3     1    42 1   
     4     1    43 1   
     5     2     3 1   
     6     2     6 1   
     7     2    21 1   
     8     2    44 1   
     9     3     4 1   
    10     3    45 1   
    11     3    46 1   
    12     4     5 1   
    13     4    47 1   
    14     4    48 1   
    15     5     6 1   
    16     5    49 1   
    17     5    50 1   
    18     6    51 1   
    19     6    52 1   
    20     7    16 1   
    21     7    27 2   
    22     7    29 1   
    23     8    14 1   
    24     8    27 1   
    25     8    28 2   
    26     9    10 ar  
    27     9    12 ar  
    28     9    29 1   
    29    10    13 1   
    30    10    30 ar  
    31    11    12 ar  
    32    11    31 ar  
    33    11    53 1   
    34    12    54 1   
    35    13    55 1   
    36    13    56 1   
    37    13    57 1   
    38    14    33 2   
    39    14    34 1   
    40    15    16 ar  
    41    15    20 ar  
    42    15    58 1   
    43    16    17 ar  
    44    17    18 ar  
    45    17    59 1   
    46    18    19 ar  
    47    18    21 1   
    48    19    20 ar  
    49    19    24 1   
    50    20    60 1   
    51    21    22 1   
    52    22    23 1   
    53    22    61 1   
    54    23    24 1   
    55    23    26 2   
    56    24    25 1   
    57    25    62 1   
    58    25    63 1   
    59    25    64 1   
    60    28    29 1   
    61    30    31 ar  
    62    30    65 1   
    63    31    32 1   
    64    32    66 1   
    65    32    67 1   
    66    32    68 1   
    67    34    35 1   
    68    34    39 1   
    69    35    36 1   
    70    35    69 1   
    71    35    70 1   
    72    36    37 1   
    73    36    71 1   
    74    36    72 1   
    75    37    38 1   
    76    37    40 1   
    77    38    39 1   
    78    38    73 1   
    79    38    74 1   
    80    39    75 1   
    81    39    76 1   
    82    40    77 1   
    83    40    78 1   
    84    40    79 1   
@<TRIPOS>SUBSTRUCTURE
     1 BQ0         1 TEMP              0 ****  ****    0 ROOT
