@<TRIPOS>MOLECULE
BQ1
   68    72     1     0     0
SMALL
bcc


@<TRIPOS>ATOM
      1 BR          -6.6410    -0.9560     0.3980 br         1 BQ1      -0.097100
      2 O02          0.7810    -0.2770     1.9980 oh         1 BQ1      -0.606800
      3 N04          1.3220    -4.2370     0.4910 n3         1 BQ1      -0.717600
      4 N05         -1.8240     0.9590    -2.6760 nb         1 BQ1      -0.769000
      5 C06          1.4620    -0.3990     0.7690 c3         1 BQ1       0.226100
      6 C07          1.0040     0.7410    -0.2050 c3         1 BQ1       0.007900
      7 C09          2.9830    -0.2780     0.9870 ca         1 BQ1      -0.095300
      8 C10         -0.4000     0.6080    -0.7460 ca         1 BQ1      -0.188600
      9 C12          1.2230     2.1100     0.4140 ca         1 BQ1      -0.085300
     10 C13          3.9490    -0.4190    -0.0670 ca         1 BQ1      -0.019000
     11 C14          3.4420    -0.0190     2.2540 ca         1 BQ1      -0.118000
     12 C15         -1.4800     0.1840    -0.0310 ca         1 BQ1      -0.056000
     13 C16          5.3310    -0.2390     0.2380 ca         1 BQ1      -0.042000
     14 C17         -0.6610     1.0020    -2.1040 ca         1 BQ1       0.675600
     15 C18          2.4200     2.7850     0.1770 ca         1 BQ1      -0.121500
     16 C19          0.2810     2.7120     1.2480 ca         1 BQ1      -0.121500
     17 C20          4.8080     0.1530     2.5490 ca         1 BQ1      -0.125000
     18 C21          3.6360    -0.7410    -1.4130 ca         1 BQ1      -0.124000
     19 C22         -2.7680     0.1210    -0.6210 ca         1 BQ1      -0.185300
     20 C23          5.7370     0.0550     1.5590 ca         1 BQ1      -0.115000
     21 C24         -2.8910     0.5240    -1.9660 ca         1 BQ1       0.457600
     22 C25          2.2450    -5.2820     0.8810 c3         1 BQ1       0.150600
     23 C26         -0.0200    -4.5630     0.9270 c3         1 BQ1       0.150600
     24 C27          6.3070    -0.3640    -0.7780 ca         1 BQ1      -0.119000
     25 C28          2.6770     4.0150     0.7620 ca         1 BQ1      -0.129000
     26 C29          0.5370     3.9420     1.8420 ca         1 BQ1      -0.129000
     27 C30          4.6020    -0.8610    -2.3770 ca         1 BQ1      -0.124000
     28 C31          1.7360     4.5970     1.6030 ca         1 BQ1      -0.125000
     29 C32          5.9580    -0.6660    -2.0640 ca         1 BQ1      -0.125000
     30 C33         -3.8990    -0.3240     0.0910 ca         1 BQ1      -0.063000
     31 C34         -4.1580     0.4730    -2.5790 ca         1 BQ1      -0.179300
     32 C35         -5.1140    -0.3600    -0.5400 ca         1 BQ1      -0.033900
     33 C36         -5.2550     0.0390    -1.8810 ca         1 BQ1      -0.089000
     34 C37          0.2010     1.8200    -4.1450 c3         1 BQ1       0.135700
     35 H02          0.9030     0.6130     2.3490 ho         1 BQ1       0.415000
     36 H371         1.1780     2.1270    -4.5060 h1         1 BQ1       0.048700
     37 H372        -0.1650     0.9880    -4.7470 h1         1 BQ1       0.048700
     38 H373        -0.4990     2.6510    -4.2340 h1         1 BQ1       0.048700
     39 H111         1.6440    -2.8400     2.0600 h1         1 BQ1       0.041200
     40 H112         2.8430    -2.8740     0.7790 h1         1 BQ1       0.041200
     41 H251         2.3270    -5.4080     1.9720 h1         1 BQ1       0.029367
     42 H252         1.9250    -6.2370     0.4620 h1         1 BQ1       0.029367
     43 H253         3.2430    -5.0680     0.4950 h1         1 BQ1       0.029367
     44 H261        -0.7390    -3.8240     0.5730 h1         1 BQ1       0.029367
     45 H262        -0.3190    -5.5270     0.5130 h1         1 BQ1       0.029367
     46 H263        -0.1150    -4.6250     2.0230 h1         1 BQ1       0.029367
     47 H07          1.6730     0.7010    -1.0610 hc         1 BQ1       0.088700
     48 H081        -0.0110    -1.8890     0.3650 hc         1 BQ1       0.059200
     49 H082         1.2560    -1.8850    -0.8200 hc         1 BQ1       0.059200
     50 H14          2.7510     0.0520     3.0800 ha         1 BQ1       0.136000
     51 H15         -1.3730    -0.1140     1.0040 ha         1 BQ1       0.159000
     52 H18          3.1590     2.3440    -0.4800 ha         1 BQ1       0.136000
     53 H19         -0.6770     2.2390     1.4270 ha         1 BQ1       0.136000
     54 H21          2.6170    -0.9160    -1.7180 ha         1 BQ1       0.137000
     55 H20          5.1050     0.3670     3.5670 ha         1 BQ1       0.133000
     56 H23          6.7910     0.1920     1.7680 ha         1 BQ1       0.132000
     57 H27          7.3470    -0.2180    -0.5120 ha         1 BQ1       0.130000
     58 H28          3.6120     4.5210     0.5590 ha         1 BQ1       0.131500
     59 H29         -0.2080     4.3900     2.4860 ha         1 BQ1       0.131500
     60 H30          4.3120    -1.1110    -3.3890 ha         1 BQ1       0.132000
     61 H33         -3.7870    -0.6280     1.1240 ha         1 BQ1       0.149000
     62 H34         -4.2570     0.7820    -3.6110 ha         1 BQ1       0.151000
     63 H32          6.7140    -0.7600    -2.8320 ha         1 BQ1       0.133000
     64 H31          1.9340     5.5580     2.0610 ha         1 BQ1       0.131000
     65 H36         -6.2220     0.0070    -2.3650 ha         1 BQ1       0.149000
     66 O03          0.3910     1.4390    -2.7890 os         1 BQ1      -0.437100
     67 C08          1.0680    -1.7930     0.2500 c3         1 BQ1      -0.063400
     68 C11          1.7700    -2.9400     0.9690 c3         1 BQ1       0.166800
@<TRIPOS>BOND
     1     1    32 1   
     2     2     5 1   
     3     2    35 1   
     4     3    22 1   
     5     3    23 1   
     6     3    68 1   
     7     4    14 ar  
     8     4    21 ar  
     9     5     6 1   
    10     5     7 1   
    11     5    67 1   
    12     6     8 1   
    13     6     9 1   
    14     6    47 1   
    15     7    10 ar  
    16     7    11 ar  
    17     8    12 ar  
    18     8    14 ar  
    19     9    15 ar  
    20     9    16 ar  
    21    10    13 ar  
    22    10    18 ar  
    23    11    17 ar  
    24    11    50 1   
    25    12    19 ar  
    26    12    51 1   
    27    13    20 ar  
    28    13    24 ar  
    29    14    66 1   
    30    15    25 ar  
    31    15    52 1   
    32    16    26 ar  
    33    16    53 1   
    34    17    20 ar  
    35    17    55 1   
    36    18    27 ar  
    37    18    54 1   
    38    19    21 ar  
    39    19    30 ar  
    40    20    56 1   
    41    21    31 ar  
    42    22    41 1   
    43    22    42 1   
    44    22    43 1   
    45    23    44 1   
    46    23    45 1   
    47    23    46 1   
    48    24    29 ar  
    49    24    57 1   
    50    25    28 ar  
    51    25    58 1   
    52    26    28 ar  
    53    26    59 1   
    54    27    29 ar  
    55    27    60 1   
    56    28    64 1   
    57    29    63 1   
    58    30    32 ar  
    59    30    61 1   
    60    31    33 ar  
    61    31    62 1   
    62    32    33 ar  
    63    33    65 1   
    64    34    36 1   
    65    34    37 1   
    66    34    38 1   
    67    34    66 1   
    68    39    68 1   
    69    40    68 1   
    70    48    67 1   
    71    49    67 1   
    72    67    68 1   
@<TRIPOS>SUBSTRUCTURE
     1 BQ1         1 TEMP              0 ****  ****    0 ROOT
