@<TRIPOS>MOLECULE
BQ1
   68    72     1     0     0
SMALL
No Charge or Current Charge


@<TRIPOS>ATOM
      1 Br          -6.6580    -1.0320     0.4900 br         1 BQ1      -0.097100
      2 O02          0.8630    -0.1740     2.0330 oh         1 BQ1      -0.669000
      3 N04          1.3650    -4.2890     0.5010 n3         1 BQ1      -0.717600
      4 N05         -1.8650     0.9130    -2.7200 nb         1 BQ1      -0.769000
      5 C06          1.5100    -0.3370     0.7610 c3         1 BQ1       0.249300
      6 C07          0.9940     0.8550    -0.1430 c3         1 BQ1       0.007900
      7 C09          3.0750    -0.2490     0.9410 ca         1 BQ1      -0.095300
      8 C10         -0.4210     0.7020    -0.7660 ca         1 BQ1      -0.123300
      9 C12          1.1780     2.2240     0.5410 ca         1 BQ1      -0.085300
     10 C13          4.0290    -0.4630    -0.1190 ca         1 BQ1      -0.019000
     11 C14          3.5950     0.0630     2.2310 ca         1 BQ1      -0.100000
     12 C15         -1.5280     0.2600    -0.0090 ca         1 BQ1      -0.038000
     13 C16          5.4230    -0.3720     0.1600 ca         1 BQ1      -0.042000
     14 C17         -0.6530     1.0280    -2.1290 ca         1 BQ1       0.610300
     15 C18          2.4090     2.9030     0.4060 ca         1 BQ1      -0.103500
     16 C19          0.1550     2.8250     1.3090 ca         1 BQ1      -0.103500
     17 C20          4.9680     0.1520     2.4780 ca         1 BQ1      -0.107000
     18 C21          3.6630    -0.7640    -1.4600 ca         1 BQ1      -0.106000
     19 C22         -2.7810     0.1430    -0.6270 ca         1 BQ1      -0.120000
     20 C23          5.8810    -0.0670     1.4490 ca         1 BQ1      -0.097000
     21 C24         -2.9140     0.4780    -1.9940 ca         1 BQ1       0.327000
     22 C25          2.2560    -5.3450     1.0310 c3         1 BQ1       0.150600
     23 C26         -0.0640    -4.6150     0.7220 c3         1 BQ1       0.150600
     24 C27          6.3850    -0.5820    -0.8470 ca         1 BQ1      -0.101000
     25 C28          2.6150     4.1480     1.0250 ca         1 BQ1      -0.111000
     26 C29          0.3620     4.0700     1.9270 ca         1 BQ1      -0.111000
     27 C30          4.6290    -0.9700    -2.4590 ca         1 BQ1      -0.106000
     28 C31          1.5910     4.7320     1.7870 ca         1 BQ1      -0.107000
     29 C32          5.9910    -0.8820    -2.1550 ca         1 BQ1      -0.107000
     30 C33         -3.8940    -0.3050     0.1120 ca         1 BQ1      -0.045000
     31 C34         -4.1770     0.3540    -2.6000 ca         1 BQ1      -0.096000
     32 C35         -5.1460    -0.4220    -0.5110 ca         1 BQ1      -0.033900
     33 C36         -5.2910    -0.0940    -1.8680 ca         1 BQ1      -0.071000
     34 C37          0.2340     1.8320    -4.2820 c3         1 BQ1       0.158900
     35 H02          0.8810     0.7880     2.2230 ho         1 BQ1       0.454000
     36 H371         1.1880     2.1680    -4.7080 h1         1 BQ1       0.048700
     37 H372        -0.1130     0.9700    -4.8660 h1         1 BQ1       0.048700
     38 H373        -0.4930     2.6470    -4.3950 h1         1 BQ1       0.048700
     39 H111         1.5770    -2.8590     2.0650 h1         1 BQ1       0.041200
     40 H112         2.8410    -2.8200     0.8370 h1         1 BQ1       0.041200
     41 H251         2.1700    -5.4190     2.1240 h1         1 BQ1       0.029367
     42 H252         2.0010    -6.3220     0.5990 h1         1 BQ1       0.029367
     43 H253         3.3040    -5.1310     0.7820 h1         1 BQ1       0.029367
     44 H261        -0.7210    -3.9280     0.1740 h1         1 BQ1       0.029367
     45 H262        -0.2880    -5.6310     0.3680 h1         1 BQ1       0.029367
     46 H263        -0.3180    -4.5620     1.7890 h1         1 BQ1       0.029367
     47 H07          1.6870     0.8810    -0.9820 hc         1 BQ1       0.088700
     48 H081        -0.0230    -1.8540     0.4550 hc         1 BQ1       0.059200
     49 H082         1.1610    -1.8750    -0.8050 hc         1 BQ1       0.059200
     50 H14          2.9450     0.2430     3.0820 ha         1 BQ1       0.118000
     51 H15         -1.4290     0.0120     1.0440 ha         1 BQ1       0.141000
     52 H18          3.2160     2.4660    -0.1780 ha         1 BQ1       0.118000
     53 H19         -0.8080     2.3380     1.4380 ha         1 BQ1       0.118000
     54 H21          2.6360    -0.8340    -1.7800 ha         1 BQ1       0.119000
     55 H20          5.3260     0.3900     3.4780 ha         1 BQ1       0.115000
     56 H23          6.9470     0.0020     1.6550 ha         1 BQ1       0.114000
     57 H27          7.4460    -0.5100    -0.6160 ha         1 BQ1       0.112000
     58 H28          3.5690     4.6580     0.9150 ha         1 BQ1       0.113500
     59 H29         -0.4330     4.5220     2.5160 ha         1 BQ1       0.113500
     60 H30          4.3160    -1.1970    -3.4760 ha         1 BQ1       0.114000
     61 H33         -3.7910    -0.5620     1.1640 ha         1 BQ1       0.131000
     62 H34         -4.2920     0.6090    -3.6500 ha         1 BQ1       0.133000
     63 H32          6.7370    -1.0420    -2.9300 ha         1 BQ1       0.115000
     64 H31          1.7500     5.6960     2.2660 ha         1 BQ1       0.113000
     65 H36         -6.2610    -0.1840    -2.3520 ha         1 BQ1       0.131000
     66 O03          0.4020     1.4810    -2.8940 os         1 BQ1      -0.460300
     67 C08          1.0510    -1.7560     0.2740 c3         1 BQ1      -0.063400
     68 C11          1.7600    -2.9370     0.9840 c3         1 BQ1       0.166800
@<TRIPOS>BOND
     1     1    32 1   
     2     2     5 1   
     3     2    35 1   
     4     3    22 1   
     5     3    23 1   
     6     3    68 1   
     7     4    14 ar  
     8     4    21 ar  
     9     5     6 1   
    10     5     7 1   
    11     5    67 1   
    12     6     8 1   
    13     6     9 1   
    14     6    47 1   
    15     7    10 ar  
    16     7    11 ar  
    17     8    12 ar  
    18     8    14 ar  
    19     9    15 ar  
    20     9    16 ar  
    21    10    13 ar  
    22    10    18 ar  
    23    11    17 ar  
    24    11    50 1   
    25    12    19 ar  
    26    12    51 1   
    27    13    20 ar  
    28    13    24 ar  
    29    14    66 1   
    30    15    25 ar  
    31    15    52 1   
    32    16    26 ar  
    33    16    53 1   
    34    17    20 ar  
    35    17    55 1   
    36    18    27 ar  
    37    18    54 1   
    38    19    21 ar  
    39    19    30 ar  
    40    20    56 1   
    41    21    31 ar  
    42    22    41 1   
    43    22    42 1   
    44    22    43 1   
    45    23    44 1   
    46    23    45 1   
    47    23    46 1   
    48    24    29 ar  
    49    24    57 1   
    50    25    28 ar  
    51    25    58 1   
    52    26    28 ar  
    53    26    59 1   
    54    27    29 ar  
    55    27    60 1   
    56    28    64 1   
    57    29    63 1   
    58    30    32 ar  
    59    30    61 1   
    60    31    33 ar  
    61    31    62 1   
    62    32    33 ar  
    63    33    65 1   
    64    34    36 1   
    65    34    37 1   
    66    34    38 1   
    67    34    66 1   
    68    39    68 1   
    69    40    68 1   
    70    48    67 1   
    71    49    67 1   
    72    67    68 1   
@<TRIPOS>SUBSTRUCTURE
     1 BQ1         1 TEMP              0 ****  ****    0 ROOT
