@<TRIPOS>MOLECULE
BQ2
   27    28     1     0     0
SMALL
No Charge or Current Charge


@<TRIPOS>ATOM
      1 N1          -1.0820     0.3920    -0.0490 n          1 BQ2      -0.417800
      2 C4           1.3050    -0.5270     0.0910 ca         1 BQ2      -0.107300
      3 C5          -0.4470     1.7420    -0.1570 c6         1 BQ2       0.098000
      4 C6           1.8420     0.7610     0.2490 ca         1 BQ2      -0.060300
      5 C8           0.8930     1.8930     0.5980 c6         1 BQ2      -0.056100
      6 C13          3.5340    -1.3810    -0.4120 ca         1 BQ2      -0.110000
      7 C12          3.2210     0.9810     0.0800 ca         1 BQ2      -0.108000
      8 C14          4.0670    -0.0910    -0.2520 ca         1 BQ2      -0.103000
      9 C11          2.1560    -1.6000    -0.2390 ca         1 BQ2      -0.106000
     10 C3          -0.1940    -0.7580     0.3100 c6         1 BQ2       0.151300
     11 C2          -2.4180     0.1980    -0.4760 c          1 BQ2       0.606100
     12 O7          -3.0500     1.1340    -0.9590 o          1 BQ2      -0.567100
     13 C9          -3.0660    -1.2140    -0.2700 c3         1 BQ2       0.083600
     14 O10         -4.5090    -1.2390    -0.4250 oh         1 BQ2      -0.621000
     15 H1          -0.2750     1.9550    -1.2220 h1         1 BQ2       0.064200
     16 H2          -1.1460     2.5050     0.2150 h1         1 BQ2       0.064200
     17 H3           1.3420     2.8670     0.3600 hc         1 BQ2       0.061700
     18 H4           0.7060     1.8890     1.6800 hc         1 BQ2       0.061700
     19 H5           4.1880    -2.2120    -0.6680 ha         1 BQ2       0.115000
     20 H6           3.6370     1.9790     0.2040 ha         1 BQ2       0.113000
     21 H7           5.1340     0.0770    -0.3840 ha         1 BQ2       0.115000
     22 H8           1.7510    -2.6030    -0.3570 ha         1 BQ2       0.109000
     23 H9          -0.3580    -1.0100     1.3680 h1         1 BQ2       0.052200
     24 H10         -0.4810    -1.6400    -0.2790 h1         1 BQ2       0.052200
     25 H11         -2.5980    -1.8990    -0.9890 h1         1 BQ2       0.032200
     26 H12         -2.7960    -1.5590     0.7370 h1         1 BQ2       0.032200
     27 H13         -4.8040    -2.1670    -0.2810 ho         1 BQ2       0.443000
@<TRIPOS>BOND
     1     1     3 1   
     2     1    10 1   
     3     1    11 1   
     4     2     4 ar  
     5     2     9 ar  
     6     2    10 1   
     7     3     5 1   
     8     3    15 1   
     9     3    16 1   
    10     4     5 1   
    11     4     7 ar  
    12     5    17 1   
    13     5    18 1   
    14     6     8 ar  
    15     6     9 ar  
    16     6    19 1   
    17     7     8 ar  
    18     7    20 1   
    19     8    21 1   
    20     9    22 1   
    21    10    23 1   
    22    10    24 1   
    23    11    12 2   
    24    11    13 1   
    25    13    14 1   
    26    13    25 1   
    27    13    26 1   
    28    14    27 1   
@<TRIPOS>SUBSTRUCTURE
     1 BQ2         1 TEMP              0 ****  ****    0 ROOT
