@<TRIPOS>MOLECULE
BQ2
   27    28     1     0     0
SMALL
bcc


@<TRIPOS>ATOM
      1 N1          -1.0440     0.3970    -0.5710 n          1 BQ2      -0.484800
      2 C4           1.2250    -0.5010    -0.3690 ca         1 BQ2      -0.107300
      3 C5          -0.4580     1.7070    -0.7770 c6         1 BQ2       0.098000
      4 C6           1.6370     0.7230     0.1570 ca         1 BQ2      -0.060300
      5 C8           0.6990     1.9000     0.1890 c6         1 BQ2      -0.056100
      6 C13          3.3990    -1.4480     0.0990 ca         1 BQ2      -0.128000
      7 C12          2.9350     0.8400     0.6550 ca         1 BQ2      -0.126000
      8 C14          3.8120    -0.2320     0.6310 ca         1 BQ2      -0.121000
      9 C11          2.1120    -1.5750    -0.3970 ca         1 BQ2      -0.124000
     10 C3          -0.1630    -0.6890    -0.9370 c6         1 BQ2       0.151300
     11 C2          -2.2580     0.2570     0.0020 c          1 BQ2       0.673100
     12 O7          -2.9470     1.2090     0.3300 o          1 BQ2      -0.567100
     13 C9          -2.7520    -1.1670     0.2200 c3         1 BQ2       0.060400
     14 O10         -4.0320    -1.1010     0.7760 oh         1 BQ2      -0.558800
     15 H1          -0.1020     1.7690    -1.8100 h1         1 BQ2       0.064200
     16 H2          -1.2140     2.4750    -0.6450 h1         1 BQ2       0.064200
     17 H3           1.2380     2.8170    -0.0600 hc         1 BQ2       0.061700
     18 H4           0.3070     2.0370     1.2010 hc         1 BQ2       0.061700
     19 H5           4.0750    -2.2920     0.0760 ha         1 BQ2       0.133000
     20 H6           3.2590     1.7900     1.0620 ha         1 BQ2       0.131000
     21 H7           4.8150    -0.1200     1.0220 ha         1 BQ2       0.133000
     22 H8           1.7860    -2.5240    -0.8090 ha         1 BQ2       0.127000
     23 H9          -0.5560    -1.6430    -0.5960 h1         1 BQ2       0.052200
     24 H10         -0.1020    -0.7570    -2.0300 h1         1 BQ2       0.052200
     25 H11         -2.7470    -1.7030    -0.7400 h1         1 BQ2       0.032200
     26 H12         -2.0460    -1.6940     0.8760 h1         1 BQ2       0.032200
     27 H13         -4.3290    -2.0030     0.9210 ho         1 BQ2       0.404000
@<TRIPOS>BOND
     1     1     3 1   
     2     1    10 1   
     3     1    11 1   
     4     2     4 ar  
     5     2     9 ar  
     6     2    10 1   
     7     3     5 1   
     8     3    15 1   
     9     3    16 1   
    10     4     5 1   
    11     4     7 ar  
    12     5    17 1   
    13     5    18 1   
    14     6     8 ar  
    15     6     9 ar  
    16     6    19 1   
    17     7     8 ar  
    18     7    20 1   
    19     8    21 1   
    20     9    22 1   
    21    10    23 1   
    22    10    24 1   
    23    11    12 2   
    24    11    13 1   
    25    13    14 1   
    26    13    25 1   
    27    13    26 1   
    28    14    27 1   
@<TRIPOS>SUBSTRUCTURE
     1 BQ2         1 TEMP              0 ****  ****    0 ROOT
