@<TRIPOS>MOLECULE
BQ4
   22    22     1     0     0
SMALL
No Charge or Current Charge


@<TRIPOS>ATOM
      1 C10         32.9120    78.0110    61.7920 ca         1 BQ4      -0.105000
      2 C13         33.5170    75.9560    63.6060 ca         1 BQ4       0.108100
      3 C15         34.4060    77.0340    63.4460 ca         1 BQ4      -0.152000
      4 C02         37.8010    81.1260    64.5370 c          1 BQ4       0.705200
      5 C04         36.8760    80.6970    63.3690 ce         1 BQ4       0.165900
      6 C06         35.9560    79.6850    63.4380 cf         1 BQ4      -0.530200
      7 C09         34.1090    78.0810    62.5410 ca         1 BQ4      -0.088600
      8 C11         32.0250    76.9330    61.9550 ca         1 BQ4      -0.103000
      9 C12         32.3280    75.9070    62.8650 ca         1 BQ4      -0.139000
     10 O01         38.5930    82.0490    64.3680 o          1 BQ4      -0.683500
     11 O03         37.7180    80.5270    65.6050 o          1 BQ4      -0.683500
     12 O05         36.9880    81.3760    62.1950 oh         1 BQ4      -0.521100
     13 O08         35.0730    79.8680    61.2800 o          1 BQ4      -0.660100
     14 O14         33.8070    74.9480    64.4780 oh         1 BQ4      -0.553100
     15 H1          32.6650    78.8000    61.0850 ha         1 BQ4       0.133000
     16 H2          35.3340    77.0450    64.0110 ha         1 BQ4       0.133000
     17 H4          35.8620    79.1550    64.3820 ha         1 BQ4       0.211000
     18 H6          31.1050    76.8930    61.3770 ha         1 BQ4       0.104000
     19 H7          31.6420    75.0720    62.9900 ha         1 BQ4       0.115000
     20 H9          36.2950    80.9390    61.6310 ho         1 BQ4       0.495000
     21 H10         34.6680    75.1410    64.9080 ho         1 BQ4       0.464000
     22 C07         35.0470    79.2540    62.3420 c          1 BQ4       0.586900
@<TRIPOS>BOND
     1     1     7 ar  
     2     1     8 ar  
     3     1    15 1   
     4     2     3 ar  
     5     2     9 ar  
     6     2    14 1   
     7     3     7 ar  
     8     3    16 1   
     9     4     5 1   
    10     4    10 1   
    11     4    11 1   
    12     5     6 2   
    13     5    12 1   
    14     6    17 1   
    15     6    22 1   
    16     7    22 1   
    17     8     9 ar  
    18     8    18 1   
    19     9    19 1   
    20    12    20 1   
    21    13    22 2   
    22    14    21 1   
@<TRIPOS>SUBSTRUCTURE
     1 BQ4         1 TEMP              0 ****  ****    0 ROOT
