@<TRIPOS>MOLECULE
BQ4
   22    22     1     0     0
SMALL
abcg2


@<TRIPOS>ATOM
      1 C10         33.0000    78.0020    61.7580 ca         1 BQ4      -0.105000
      2 C13         33.5150    76.0060    63.6310 ca         1 BQ4       0.108100
      3 C15         34.3660    77.1030    63.5360 ca         1 BQ4      -0.152000
      4 C02         37.8590    81.0230    64.4230 c          1 BQ4       0.705200
      5 C04         36.8060    80.6760    63.3510 ce         1 BQ4       0.165900
      6 C06         35.9600    79.6090    63.4790 cf         1 BQ4      -0.530200
      7 C09         34.1140    78.1070    62.5960 ca         1 BQ4      -0.088600
      8 C11         32.1510    76.9090    61.8690 ca         1 BQ4      -0.103000
      9 C12         32.4010    75.9080    62.7990 ca         1 BQ4      -0.139000
     10 O01         38.7090    81.8790    64.1010 o          1 BQ4      -0.683500
     11 O03         37.7540    80.4020    65.5050 o          1 BQ4      -0.683500
     12 O05         36.7800    81.4650    62.2890 oh         1 BQ4      -0.521100
     13 O08         34.9080    80.0040    61.4240 o          1 BQ4      -0.660100
     14 O14         33.7290    74.9960    64.5220 oh         1 BQ4      -0.553100
     15 H1          32.8070    78.7790    61.0330 ha         1 BQ4       0.133000
     16 H2          35.2300    77.1500    64.1850 ha         1 BQ4       0.133000
     17 H4          36.0300    79.0280    64.3820 ha         1 BQ4       0.211000
     18 H6          31.2840    76.8310    61.2260 ha         1 BQ4       0.104000
     19 H7          31.7470    75.0500    62.8890 ha         1 BQ4       0.115000
     20 H9          36.0470    81.0990    61.7030 ho         1 BQ4       0.495000
     21 H10         34.5210    75.1780    65.0470 ho         1 BQ4       0.464000
     22 C07         35.0090    79.2900    62.4530 c          1 BQ4       0.586900
@<TRIPOS>BOND
     1     1     7 ar  
     2     1     8 ar  
     3     1    15 1   
     4     2     3 ar  
     5     2     9 ar  
     6     2    14 1   
     7     3     7 ar  
     8     3    16 1   
     9     4     5 1   
    10     4    10 1   
    11     4    11 1   
    12     5     6 2   
    13     5    12 1   
    14     6    17 1   
    15     6    22 1   
    16     7    22 1   
    17     8     9 ar  
    18     8    18 1   
    19     9    19 1   
    20    12    20 1   
    21    13    22 2   
    22    14    21 1   
@<TRIPOS>SUBSTRUCTURE
     1 BQ4         1 TEMP              0 ****  ****    0 ROOT
