@<TRIPOS>MOLECULE
BQ5
   31    33     1     0     0
SMALL
bcc


@<TRIPOS>ATOM
      1 N1          -0.2420    -0.1180    -0.0330 na         1 BQ5       0.189300
      2 C4           1.8700     0.4630    -0.1020 cc         1 BQ5      -0.244600
      3 C5           1.7280    -0.9350    -0.1970 cc         1 BQ5       0.346600
      4 C6          -1.6470    -0.1560    -0.0010 ca         1 BQ5       0.030800
      5 C7           2.8770     1.5610    -0.1630 c5         1 BQ5       0.012900
      6 C8           0.5210     2.4340     0.0220 c5         1 BQ5      -0.003100
      7 C13         -2.3170    -1.2730    -0.4950 ca         1 BQ5      -0.137000
      8 C15         -3.7590     0.8640     0.5290 ca         1 BQ5      -0.114000
      9 C12         -2.3730     0.9120     0.5180 ca         1 BQ5      -0.137000
     10 C16         -4.4330    -0.2450     0.0410 ca         1 BQ5      -0.137000
     11 C14         -3.7030    -1.3130    -0.4660 ca         1 BQ5      -0.114000
     12 N2           0.4520    -1.2670    -0.1430 nd         1 BQ5      -0.526800
     13 C3           0.6000     0.9440     0.0010 cd         1 BQ5      -0.105600
     14 C11          2.0200     2.8080     0.1960 c5         1 BQ5      -0.079400
     15 C9           2.7920    -1.9740    -0.3340 c3         1 BQ5       0.123500
     16 N10          3.8640    -1.7320     0.6180 n8         1 BQ5      -0.884800
     17 H1           3.7060     1.4260     0.5320 hc         1 BQ5       0.056700
     18 H2           3.3140     1.6470    -1.1610 hc         1 BQ5       0.056700
     19 H3           0.1010     2.8200    -0.9110 hc         1 BQ5       0.055200
     20 H4          -0.0810     2.8410     0.8350 hc         1 BQ5       0.055200
     21 H5          -1.7600    -2.1050    -0.9000 ha         1 BQ5       0.149000
     22 H6          -4.3110     1.7020     0.9360 ha         1 BQ5       0.134000
     23 H7          -1.8720     1.7760     0.9300 ha         1 BQ5       0.149000
     24 H8          -5.5140    -0.2800     0.0570 ha         1 BQ5       0.135000
     25 H9          -4.2120    -2.1860    -0.8520 ha         1 BQ5       0.134000
     26 H10          2.1950     3.0750     1.2380 hc         1 BQ5       0.044700
     27 H11          2.2880     3.6760    -0.4050 hc         1 BQ5       0.044700
     28 H12          2.3280    -2.9660    -0.2580 h1         1 BQ5       0.043700
     29 H13          3.2190    -1.9120    -1.3400 h1         1 BQ5       0.043700
     30 H14          3.5310    -1.9180     1.5550 hn         1 BQ5       0.340800
     31 H15          4.6130    -2.3920     0.4520 hn         1 BQ5       0.340800
@<TRIPOS>BOND
     1     1     4 1   
     2     1    12 1   
     3     1    13 1   
     4     2     3 1   
     5     2     5 1   
     6     2    13 2   
     7     3    12 2   
     8     3    15 1   
     9     4     7 ar  
    10     4     9 ar  
    11     5    14 1   
    12     5    17 1   
    13     5    18 1   
    14     6    13 1   
    15     6    14 1   
    16     6    19 1   
    17     6    20 1   
    18     7    11 ar  
    19     7    21 1   
    20     8     9 ar  
    21     8    10 ar  
    22     8    22 1   
    23     9    23 1   
    24    10    11 ar  
    25    10    24 1   
    26    11    25 1   
    27    14    26 1   
    28    14    27 1   
    29    15    16 1   
    30    15    28 1   
    31    15    29 1   
    32    16    30 1   
    33    16    31 1   
@<TRIPOS>SUBSTRUCTURE
     1 BQ5         1 TEMP              0 ****  ****    0 ROOT
