@<TRIPOS>MOLECULE
BQ5
   31    33     1     0     0
SMALL
No Charge or Current Charge


@<TRIPOS>ATOM
      1 N1          -0.1550    -0.2250     0.4060 na         1 BQ5       0.240000
      2 C4           1.7850     0.6050     0.1540 cc         1 BQ5      -0.179300
      3 C5           1.8720    -0.8010     0.2180 cc         1 BQ5       0.281300
      4 C6          -1.5480    -0.1860     0.2970 ca         1 BQ5       0.030800
      5 C7           2.7530     1.5780    -0.4080 c5         1 BQ5       0.012900
      6 C8           0.3500     2.3330    -0.3390 c5         1 BQ5      -0.003100
      7 C13         -2.2050    -0.9620    -0.6810 ca         1 BQ5      -0.119000
      8 C15         -3.7130     0.6650     1.0470 ca         1 BQ5      -0.096000
      9 C12         -2.3120     0.6260     1.1610 ca         1 BQ5      -0.119000
     10 C16         -4.3590    -0.1090     0.0680 ca         1 BQ5      -0.119000
     11 C14         -3.6060    -0.9230    -0.7950 ca         1 BQ5      -0.096000
     12 N2           0.6700    -1.3530     0.3830 nd         1 BQ5      -0.526800
     13 C3           0.5270     0.9850     0.3040 cd         1 BQ5      -0.156300
     14 C11          1.8400     2.8620    -0.5140 c5         1 BQ5      -0.079400
     15 C9           3.1550    -1.5920    -0.0140 c3         1 BQ5       0.123500
     16 N10          3.5270    -2.5060     1.1050 n8         1 BQ5      -0.995200
     17 H1           3.6190     1.7330     0.2450 hc         1 BQ5       0.056700
     18 H2           3.1190     1.2570    -1.3900 hc         1 BQ5       0.056700
     19 H3          -0.1540     2.2450    -1.3090 hc         1 BQ5       0.055200
     20 H4          -0.2540     3.0150     0.2710 hc         1 BQ5       0.055200
     21 H5          -1.6280    -1.5930    -1.3530 ha         1 BQ5       0.131000
     22 H6          -4.2960     1.2940     1.7160 ha         1 BQ5       0.116000
     23 H7          -1.8180     1.2260     1.9230 ha         1 BQ5       0.131000
     24 H8          -5.4430    -0.0790    -0.0210 ha         1 BQ5       0.117000
     25 H9          -4.1070    -1.5220    -1.5520 ha         1 BQ5       0.116000
     26 H10          2.0870     3.5660     0.2890 hc         1 BQ5       0.044700
     27 H11          1.9830     3.3980    -1.4600 hc         1 BQ5       0.044700
     28 H12          3.0320    -2.1910    -0.9270 h1         1 BQ5       0.043700
     29 H13          3.9890    -0.8970    -0.1840 h1         1 BQ5       0.043700
     30 H14          2.7640    -3.1810     1.2420 hn         1 BQ5       0.396000
     31 H15          4.3220    -3.0900     0.8170 hn         1 BQ5       0.396000
@<TRIPOS>BOND
     1     1     4 1   
     2     1    12 1   
     3     1    13 1   
     4     2     3 1   
     5     2     5 1   
     6     2    13 2   
     7     3    12 2   
     8     3    15 1   
     9     4     7 ar  
    10     4     9 ar  
    11     5    14 1   
    12     5    17 1   
    13     5    18 1   
    14     6    13 1   
    15     6    14 1   
    16     6    19 1   
    17     6    20 1   
    18     7    11 ar  
    19     7    21 1   
    20     8     9 ar  
    21     8    10 ar  
    22     8    22 1   
    23     9    23 1   
    24    10    11 ar  
    25    10    24 1   
    26    11    25 1   
    27    14    26 1   
    28    14    27 1   
    29    15    16 1   
    30    15    28 1   
    31    15    29 1   
    32    16    30 1   
    33    16    31 1   
@<TRIPOS>SUBSTRUCTURE
     1 BQ5         1 TEMP              0 ****  ****    0 ROOT
