@<TRIPOS>MOLECULE
BQ7
   22    22     1     0     0
SMALL
No Charge or Current Charge


@<TRIPOS>ATOM
      1 C            2.6760     0.2220    -0.1930 c          1 BQ7       0.702000
      2 N            0.4800    -1.9520    -0.7530 n8         1 BQ7      -1.017200
      3 O            3.3930    -0.7650    -0.0830 o          1 BQ7      -0.688500
      4 O1           3.0620     1.2670    -0.7030 o          1 BQ7      -0.688500
      5 CA           1.2300     0.1650     0.4040 c3         1 BQ7      -0.021000
      6 CB           0.2550    -0.4910    -0.6250 c3         1 BQ7       0.170800
      7 CG          -1.2270    -0.2020    -0.3470 ca         1 BQ7      -0.043300
      8 FR           1.2120    -0.5250     1.5770 f          1 BQ7      -0.140500
      9 FS           0.7820     1.4140     0.7060 f          1 BQ7      -0.140500
     10 CZ          -3.9570     0.3560     0.1340 ca         1 BQ7      -0.130000
     11 CD1         -1.9860     0.5310    -1.2840 ca         1 BQ7      -0.089000
     12 CD2         -1.8560    -0.6550     0.8350 ca         1 BQ7      -0.089000
     13 CE1         -3.3430     0.8090    -1.0450 ca         1 BQ7      -0.125500
     14 CE2         -3.2130    -0.3760     1.0730 ca         1 BQ7      -0.125500
     15 HB           0.4990    -0.0440    -1.6020 h1         1 BQ7       0.089700
     16 HZ          -5.0070     0.5720     0.3190 ha         1 BQ7       0.092000
     17 HD1         -1.5230     0.8890    -2.2010 ha         1 BQ7       0.116000
     18 HD2         -1.2940    -1.2240     1.5700 ha         1 BQ7       0.116000
     19 HE1         -3.9180     1.3760    -1.7730 ha         1 BQ7       0.095500
     20 HE2         -3.6870    -0.7290     1.9860 ha         1 BQ7       0.095500
     21 HN           1.4950    -2.1160    -0.7890 hn         1 BQ7       0.410500
     22 HNA          0.2100    -2.3930     0.1320 hn         1 BQ7       0.410500
@<TRIPOS>BOND
     1     1     3 1   
     2     1     4 1   
     3     1     5 1   
     4     2     6 1   
     5     2    21 1   
     6     2    22 1   
     7     5     6 1   
     8     5     8 1   
     9     5     9 1   
    10     6     7 1   
    11     6    15 1   
    12     7    11 ar  
    13     7    12 ar  
    14    10    13 ar  
    15    10    14 ar  
    16    10    16 1   
    17    11    13 ar  
    18    11    17 1   
    19    12    14 ar  
    20    12    18 1   
    21    13    19 1   
    22    14    20 1   
@<TRIPOS>SUBSTRUCTURE
     1 BQ7         1 TEMP              0 ****  ****    0 ROOT
