@<TRIPOS>MOLECULE
BQ7
   22    22     1     0     0
SMALL
bcc


@<TRIPOS>ATOM
      1 C            2.6490     0.1030    -0.1230 c          1 BQ7       0.912600
      2 N            0.5200    -1.9680    -0.5300 n8         1 BQ7      -0.906800
      3 O            3.3870    -0.1080     0.8470 o          1 BQ7      -0.793800
      4 O1           2.9380     0.1760    -1.3290 o          1 BQ7      -0.793800
      5 CA           1.1430     0.3260     0.1700 c3         1 BQ7       0.221600
      6 CB           0.2130    -0.5570    -0.6680 c3         1 BQ7       0.170800
      7 CG          -1.2340    -0.2570    -0.3520 ca         1 BQ7      -0.043300
      8 FR           0.8720     0.1330     1.4940 f          1 BQ7      -0.261800
      9 FS           0.8550     1.6490    -0.0690 f          1 BQ7      -0.261800
     10 CZ          -3.9050     0.3580     0.2260 ca         1 BQ7      -0.148000
     11 CD1         -1.8950     0.7650    -1.0310 ca         1 BQ7      -0.107000
     12 CD2         -1.9320    -0.9660     0.6220 ca         1 BQ7      -0.107000
     13 CE1         -3.2200     1.0690    -0.7500 ca         1 BQ7      -0.143500
     14 CE2         -3.2560    -0.6620     0.9090 ca         1 BQ7      -0.143500
     15 HB           0.3930    -0.2880    -1.7100 h1         1 BQ7       0.089700
     16 HZ          -4.9390     0.5910     0.4470 ha         1 BQ7       0.110000
     17 HD1         -1.3750     1.3190    -1.8030 ha         1 BQ7       0.134000
     18 HD2         -1.4560    -1.7760     1.1580 ha         1 BQ7       0.134000
     19 HE1         -3.7180     1.8610    -1.2950 ha         1 BQ7       0.113500
     20 HE2         -3.7840    -1.2260     1.6680 ha         1 BQ7       0.113500
     21 HN           1.4000    -2.1750    -0.9840 hn         1 BQ7       0.355300
     22 HNA          0.6260    -2.2350     0.4410 hn         1 BQ7       0.355300
@<TRIPOS>BOND
     1     1     3 1   
     2     1     4 1   
     3     1     5 1   
     4     2     6 1   
     5     2    21 1   
     6     2    22 1   
     7     5     6 1   
     8     5     8 1   
     9     5     9 1   
    10     6     7 1   
    11     6    15 1   
    12     7    11 ar  
    13     7    12 ar  
    14    10    13 ar  
    15    10    14 ar  
    16    10    16 1   
    17    11    13 ar  
    18    11    17 1   
    19    12    14 ar  
    20    12    18 1   
    21    13    19 1   
    22    14    20 1   
@<TRIPOS>SUBSTRUCTURE
     1 BQ7         1 TEMP              0 ****  ****    0 ROOT
