@<TRIPOS>MOLECULE
BQ8
   42    43     1     0     0
SMALL
No Charge or Current Charge


@<TRIPOS>ATOM
      1 N           -5.5010     0.0700    -0.3350 nu         1 BQ8      -0.896400
      2 CA          -4.5960    -0.7280     0.5460 c3         1 BQ8       0.157500
      3 C           -3.2240    -0.0070     0.7990 c          1 BQ8       0.604100
      4 O           -3.1410     0.9950     1.5000 o          1 BQ8      -0.525100
      5 CB          -5.3220    -1.0620     1.8690 c3         1 BQ8      -0.123100
      6 CAI          5.7030    -0.3420    -1.0650 ca         1 BQ8      -0.175000
      7 CAJ          3.5060     0.6170    -1.4600 ca         1 BQ8      -0.215500
      8 CAK          3.8200    -1.0130     0.3150 ca         1 BQ8      -0.215500
      9 CAP         -6.3960    -0.4450    -1.1620 c2         1 BQ8       0.799100
     10 CAQ          1.8680     1.9610     1.4880 c          1 BQ8       0.502600
     11 CAS          4.8660     0.5190    -1.7880 ca         1 BQ8       0.176600
     12 CAT          5.1800    -1.1080    -0.0160 ca         1 BQ8       0.176600
     13 CAU          2.9800    -0.1440    -0.4010 ca         1 BQ8       0.065000
     14 CAV         -0.8130    -0.2440     0.2100 cc         1 BQ8       0.575300
     15 CAW          1.0370     0.9020     0.7900 cd         1 BQ8       0.231500
     16 CAX          1.5660    -0.0550    -0.0670 cc         1 BQ8      -0.123000
     17 NAC         -6.9750     0.5710    -1.7390 nv         1 BQ8      -1.066200
     18 NAD         -6.4770    -1.6470    -1.4720 n2         1 BQ8      -0.906100
     19 NAL         -0.3510     0.7660     0.9290 nd         1 BQ8      -0.644000
     20 NAM         -2.1410    -0.5960     0.1740 ns         1 BQ8      -0.486400
     21 OAE          3.0840     2.0780     1.3760 o          1 BQ8      -0.512100
     22 OAH          5.9980    -1.9460     0.6790 oh         1 BQ8      -0.529100
     23 SAO          0.3710    -1.1400    -0.7000 ss         1 BQ8      -0.070400
     24 H1          -5.8040     0.9670     0.0240 hn         1 BQ8       0.492000
     25 H2          -4.3520    -1.6820     0.0580 h1         1 BQ8       0.098700
     26 H3          -5.5920    -0.1490     2.4130 hc         1 BQ8       0.052033
     27 H4          -6.2380    -1.6330     1.6770 hc         1 BQ8       0.052033
     28 H5          -4.6760    -1.6670     2.5170 hc         1 BQ8       0.052033
     29 H6           0.3240     3.4250     1.8180 hc         1 BQ8       0.068700
     30 H7           0.5520     2.3750     3.1420 hc         1 BQ8       0.068700
     31 H8           1.7820     3.6780     2.8660 hc         1 BQ8       0.068700
     32 H9           6.7560    -0.4170    -1.3210 ha         1 BQ8       0.145000
     33 H10          2.8510     1.2800    -2.0190 ha         1 BQ8       0.121500
     34 H11          3.4080    -1.6080     1.1270 ha         1 BQ8       0.121500
     35 H12         -6.2950     1.2760    -1.9830 hn         1 BQ8       0.458000
     36 H13         -7.5660     0.3080    -2.5160 hn         1 BQ8       0.458000
     37 H14         -7.1940    -1.7370    -2.1990 hn         1 BQ8       0.382400
     38 H15         -2.3690    -1.3960    -0.3980 hn         1 BQ8       0.335500
     39 H16          4.6560     1.7960    -3.1940 ho         1 BQ8       0.468000
     40 H17          5.4640    -2.3950     1.3690 ho         1 BQ8       0.468000
     41 OAG          5.3800     1.2570    -2.8110 oh         1 BQ8      -0.529100
     42 CAA          1.1200     2.9430     2.3960 c3         1 BQ8      -0.183100
@<TRIPOS>BOND
     1     1     2 1   
     2     1     9 1   
     3     1    24 1   
     4     2     3 1   
     5     2     5 1   
     6     2    25 1   
     7     3     4 2   
     8     3    20 1   
     9     5    26 1   
    10     5    27 1   
    11     5    28 1   
    12     6    11 ar  
    13     6    12 ar  
    14     6    32 1   
    15     7    11 ar  
    16     7    13 ar  
    17     7    33 1   
    18     8    12 ar  
    19     8    13 ar  
    20     8    34 1   
    21     9    17 1   
    22     9    18 2   
    23    10    15 1   
    24    10    21 2   
    25    10    42 1   
    26    11    41 1   
    27    12    22 1   
    28    13    16 1   
    29    14    19 2   
    30    14    20 1   
    31    14    23 1   
    32    15    16 2   
    33    15    19 1   
    34    16    23 1   
    35    17    35 1   
    36    17    36 1   
    37    18    37 1   
    38    20    38 1   
    39    22    40 1   
    40    29    42 1   
    41    30    42 1   
    42    31    42 1   
    43    39    41 1   
@<TRIPOS>SUBSTRUCTURE
     1 BQ8         1 TEMP              0 ****  ****    0 ROOT
