@<TRIPOS>MOLECULE
BQ8
   42    43     1     0     0
SMALL
abcg2


@<TRIPOS>ATOM
      1 N           -5.5470     0.1910     0.0980 nu         1 BQ8      -0.896400
      2 CA          -4.4250    -0.7050     0.0400 c3         1 BQ8       0.157500
      3 C           -3.1550     0.0980     0.2900 c          1 BQ8       0.604100
      4 O           -3.1360     1.1230     0.9270 o          1 BQ8      -0.525100
      5 CB          -4.5080    -1.8480     1.0570 c3         1 BQ8      -0.123100
      6 CAI          5.8240    -0.8010    -0.4380 ca         1 BQ8      -0.175000
      7 CAJ          3.8990     0.5400    -1.0190 ca         1 BQ8      -0.215500
      8 CAK          3.6880    -1.2490     0.5960 ca         1 BQ8      -0.215500
      9 CAP         -6.7370    -0.1430    -0.4960 c2         1 BQ8       0.799100
     10 CAQ          1.6060     2.4530     0.8730 c          1 BQ8       0.502600
     11 CAS          5.2490     0.2370    -1.1640 ca         1 BQ8       0.176600
     12 CAT          5.0420    -1.5390     0.4410 ca         1 BQ8       0.176600
     13 CAU          3.1300    -0.2030    -0.1310 ca         1 BQ8       0.065000
     14 CAV         -0.7370    -0.0640    -0.0780 cc         1 BQ8       0.575300
     15 CAW          1.0020     1.1920     0.3740 cd         1 BQ8       0.231500
     16 CAX          1.6930     0.0730    -0.0030 cc         1 BQ8      -0.123000
     17 NAC         -7.7720     0.6930    -0.1420 nv         1 BQ8      -1.066200
     18 NAD         -6.8160    -1.1590    -1.2740 n2         1 BQ8      -0.906100
     19 NAL         -0.3620     1.1000     0.3130 nd         1 BQ8      -0.644000
     20 NAM         -2.0330    -0.4960    -0.2340 ns         1 BQ8      -0.486400
     21 OAE          2.7920     2.5270     1.1070 o          1 BQ8      -0.512100
     22 OAH          5.6460    -2.5300     1.1210 oh         1 BQ8      -0.529100
     23 SAO          0.5670    -1.1620    -0.4260 ss         1 BQ8      -0.070400
     24 H1          -5.6020     0.7600     0.9300 hn         1 BQ8       0.492000
     25 H2          -4.3950    -1.1310    -0.9650 h1         1 BQ8       0.098700
     26 H3          -4.5370    -1.4590     2.0760 hc         1 BQ8       0.052033
     27 H4          -5.4130    -2.4260     0.8790 hc         1 BQ8       0.052033
     28 H5          -3.6570    -2.5250     0.9760 hc         1 BQ8       0.052033
     29 H6           0.2040     3.8850     0.1240 hc         1 BQ8       0.068700
     30 H7          -0.1490     3.3340     1.7430 hc         1 BQ8       0.068700
     31 H8           1.1990     4.4640     1.4760 hc         1 BQ8       0.068700
     32 H9           6.8760    -1.0320    -0.5590 ha         1 BQ8       0.145000
     33 H10          3.4500     1.3410    -1.5920 ha         1 BQ8       0.121500
     34 H11          3.0780    -1.8180     1.2890 ha         1 BQ8       0.121500
     35 H12         -7.5260     1.6420     0.0940 hn         1 BQ8       0.458000
     36 H13         -8.5790     0.6550    -0.7440 hn         1 BQ8       0.458000
     37 H14         -7.7370    -1.2180    -1.6930 hn         1 BQ8       0.382400
     38 H15         -2.1680    -1.3480    -0.7590 hn         1 BQ8       0.335500
     39 H16          5.5560     1.6170    -2.4480 ho         1 BQ8       0.468000
     40 H17          5.0210    -2.9710     1.7070 ho         1 BQ8       0.468000
     41 OAG          6.0500     0.9190    -2.0040 oh         1 BQ8      -0.529100
     42 CAA          0.6660     3.6070     1.0730 c3         1 BQ8      -0.183100
@<TRIPOS>BOND
     1     1     2 1   
     2     1     9 1   
     3     1    24 1   
     4     2     3 1   
     5     2     5 1   
     6     2    25 1   
     7     3     4 2   
     8     3    20 1   
     9     5    26 1   
    10     5    27 1   
    11     5    28 1   
    12     6    11 ar  
    13     6    12 ar  
    14     6    32 1   
    15     7    11 ar  
    16     7    13 ar  
    17     7    33 1   
    18     8    12 ar  
    19     8    13 ar  
    20     8    34 1   
    21     9    17 1   
    22     9    18 2   
    23    10    15 1   
    24    10    21 2   
    25    10    42 1   
    26    11    41 1   
    27    12    22 1   
    28    13    16 1   
    29    14    19 2   
    30    14    20 1   
    31    14    23 1   
    32    15    16 2   
    33    15    19 1   
    34    16    23 1   
    35    17    35 1   
    36    17    36 1   
    37    18    37 1   
    38    20    38 1   
    39    22    40 1   
    40    29    42 1   
    41    30    42 1   
    42    31    42 1   
    43    39    41 1   
@<TRIPOS>SUBSTRUCTURE
     1 BQ8         1 TEMP              0 ****  ****    0 ROOT
