@<TRIPOS>MOLECULE
BQ9
   84    83     1     0     0
SMALL
bcc


@<TRIPOS>ATOM
      1 C10          2.4590    -3.0290    -0.2120 c          1 BQ9       0.644100
      2 C11         -2.8920    -2.8810    -0.4380 c          1 BQ9       0.640100
      3 C12          2.9230    -2.0910     0.8690 c3         1 BQ9      -0.138400
      4 C13          4.4240    -2.1270     1.1070 c3         1 BQ9      -0.065400
      5 C14          4.8330    -1.1660     2.2240 c3         1 BQ9      -0.041200
      6 C15          6.3010    -1.2200     2.5050 c2         1 BQ9      -0.171200
      7 C16          7.1440    -0.2040     2.3490 c2         1 BQ9      -0.160200
      8 C17          8.6230    -0.2620     2.5980 c3         1 BQ9      -0.007000
      9 C18          9.3900    -0.0390     1.3280 c2         1 BQ9      -0.166200
     10 C19         10.1370     1.0300     1.0710 c2         1 BQ9      -0.164200
     11 C20         10.8490     1.2930    -0.2240 c3         1 BQ9      -0.006000
     12 C21         10.2270     2.4560    -0.9410 c2         1 BQ9      -0.167200
     13 C22         10.8190     3.6260    -1.1610 c2         1 BQ9      -0.167200
     14 C23         10.1750     4.8040    -1.8210 c3         1 BQ9      -0.042200
     15 C24         10.0610     5.9970    -0.8730 c3         1 BQ9      -0.085100
     16 C31         -3.5230    -1.5150    -0.4270 c3         1 BQ9      -0.136400
     17 C32         -5.0020    -1.5300    -0.0800 c3         1 BQ9      -0.068400
     18 C33         -5.6300    -0.1450    -0.1770 c3         1 BQ9      -0.075400
     19 C34         -7.1140    -0.1510     0.1640 c3         1 BQ9      -0.075400
     20 C35         -7.7810     1.2100     0.0070 c3         1 BQ9      -0.073400
     21 C36         -9.2660     1.1860     0.3430 c3         1 BQ9      -0.074400
     22 C37         -9.9560     2.5310     0.1480 c3         1 BQ9      -0.074400
     23 C38        -11.4420     2.4940     0.4770 c3         1 BQ9      -0.074400
     24 C39        -12.1440     3.8290     0.2600 c3         1 BQ9      -0.075400
     25 C40        -13.6330     3.7860     0.5820 c3         1 BQ9      -0.075400
     26 C41        -14.3290     5.1200     0.3520 c3         1 BQ9      -0.088100
     27 C7           0.6280    -3.1850    -2.7610 c3         1 BQ9       0.121400
     28 C8           0.5140    -3.7790    -1.3670 c3         1 BQ9       0.153100
     29 C9          -0.8930    -4.0460    -0.8820 c3         1 BQ9       0.146400
     30 O16          1.1430    -2.9450    -0.3880 os         1 BQ9      -0.404900
     31 O17          3.1720    -3.7700    -0.8410 o          1 BQ9      -0.546000
     32 O18         -1.6090    -2.8200    -0.7750 os         1 BQ9      -0.393900
     33 O19         -3.4610    -3.9140    -0.1870 o          1 BQ9      -0.546000
     34 H1           2.6000    -1.0790     0.6050 hc         1 BQ9       0.074200
     35 H2           2.3840    -2.3390     1.7880 hc         1 BQ9       0.074200
     36 H3           4.7360    -3.1410     1.3680 hc         1 BQ9       0.056700
     37 H4           4.9550    -1.8600     0.1910 hc         1 BQ9       0.056700
     38 H5           4.5420    -0.1450     1.9590 hc         1 BQ9       0.044200
     39 H6           4.2790    -1.4250     3.1330 hc         1 BQ9       0.044200
     40 H7           6.6880    -2.1780     2.8490 ha         1 BQ9       0.118000
     41 H8           6.7630     0.7520     1.9940 ha         1 BQ9       0.119000
     42 H9           8.9060     0.4980     3.3330 hc         1 BQ9       0.049700
     43 H10          8.8830    -1.2350     3.0260 hc         1 BQ9       0.049700
     44 H11          9.2840    -0.8100     0.5680 ha         1 BQ9       0.120000
     45 H12         10.2280     1.8090     1.8260 ha         1 BQ9       0.118000
     46 H13         11.9060     1.5030    -0.0330 hc         1 BQ9       0.049200
     47 H14         10.8060     0.3990    -0.8530 hc         1 BQ9       0.049200
     48 H15          9.1990     2.3120    -1.2690 ha         1 BQ9       0.118000
     49 H16         11.8430     3.7690    -0.8210 ha         1 BQ9       0.115000
     50 H17         10.7610     5.1010    -2.6960 hc         1 BQ9       0.042700
     51 H18          9.1840     4.5270    -2.1910 hc         1 BQ9       0.042700
     52 H19          9.6180     6.8580    -1.3730 hc         1 BQ9       0.033033
     53 H20          9.4390     5.7510    -0.0110 hc         1 BQ9       0.033033
     54 H21         11.0410     6.2990    -0.4990 hc         1 BQ9       0.033033
     55 H22         -2.9670    -0.8830     0.2720 hc         1 BQ9       0.074200
     56 H23         -3.3640    -1.0670    -1.4130 hc         1 BQ9       0.074200
     57 H24         -5.5320    -2.2110    -0.7520 hc         1 BQ9       0.053200
     58 H25         -5.1430    -1.9230     0.9310 hc         1 BQ9       0.053200
     59 H26         -5.1050     0.5490     0.4870 hc         1 BQ9       0.037200
     60 H27         -5.4920     0.2430    -1.1920 hc         1 BQ9       0.037200
     61 H28         -7.6280    -0.8790    -0.4740 hc         1 BQ9       0.039700
     62 H29         -7.2480    -0.5050     1.1920 hc         1 BQ9       0.039700
     63 H30         -7.2740     1.9430     0.6440 hc         1 BQ9       0.037200
     64 H31         -7.6480     1.5600    -1.0230 hc         1 BQ9       0.037200
     65 H32         -9.7650     0.4320    -0.2760 hc         1 BQ9       0.037700
     66 H33         -9.3980     0.8580     1.3800 hc         1 BQ9       0.037700
     67 H34         -9.4640     3.2880     0.7690 hc         1 BQ9       0.036700
     68 H35         -9.8220     2.8590    -0.8890 hc         1 BQ9       0.036700
     69 H36        -11.9290     1.7260    -0.1340 hc         1 BQ9       0.036700
     70 H37        -11.5750     2.1790     1.5180 hc         1 BQ9       0.036700
     71 H38        -11.6630     4.5990     0.8720 hc         1 BQ9       0.036700
     72 H39        -12.0090     4.1440    -0.7810 hc         1 BQ9       0.036700
     73 H40        -14.1110     3.0120    -0.0260 hc         1 BQ9       0.036700
     74 H41        -13.7680     3.4760     1.6230 hc         1 BQ9       0.036700
     75 H42        -15.3910     5.0660     0.5960 hc         1 BQ9       0.031367
     76 H43        -13.8890     5.9060     0.9680 hc         1 BQ9       0.031367
     77 H44        -14.2450     5.4340    -0.6900 hc         1 BQ9       0.031367
     78 H45          1.6750    -3.2500    -3.0770 h1         1 BQ9       0.031200
     79 H46          0.0600    -3.8410    -3.4350 h1         1 BQ9       0.031200
     80 H47          1.0030    -4.7580    -1.4030 h1         1 BQ9       0.070700
     81 H48         -1.3810    -4.7190    -1.5930 h1         1 BQ9       0.056200
     82 H49         -0.8590    -4.5520     0.0860 h1         1 BQ9       0.056200
     83 H50          0.4170    -1.4790    -3.6270 ho         1 BQ9       0.401000
     84 O13          0.1640    -1.8610    -2.7820 oh         1 BQ9      -0.572800
@<TRIPOS>BOND
     1     1     3 1   
     2     1    30 1   
     3     1    31 2   
     4     2    16 1   
     5     2    32 1   
     6     2    33 2   
     7     3     4 1   
     8     3    34 1   
     9     3    35 1   
    10     4     5 1   
    11     4    36 1   
    12     4    37 1   
    13     5     6 1   
    14     5    38 1   
    15     5    39 1   
    16     6     7 2   
    17     6    40 1   
    18     7     8 1   
    19     7    41 1   
    20     8     9 1   
    21     8    42 1   
    22     8    43 1   
    23     9    10 2   
    24     9    44 1   
    25    10    11 1   
    26    10    45 1   
    27    11    12 1   
    28    11    46 1   
    29    11    47 1   
    30    12    13 2   
    31    12    48 1   
    32    13    14 1   
    33    13    49 1   
    34    14    15 1   
    35    14    50 1   
    36    14    51 1   
    37    15    52 1   
    38    15    53 1   
    39    15    54 1   
    40    16    17 1   
    41    16    55 1   
    42    16    56 1   
    43    17    18 1   
    44    17    57 1   
    45    17    58 1   
    46    18    19 1   
    47    18    59 1   
    48    18    60 1   
    49    19    20 1   
    50    19    61 1   
    51    19    62 1   
    52    20    21 1   
    53    20    63 1   
    54    20    64 1   
    55    21    22 1   
    56    21    65 1   
    57    21    66 1   
    58    22    23 1   
    59    22    67 1   
    60    22    68 1   
    61    23    24 1   
    62    23    69 1   
    63    23    70 1   
    64    24    25 1   
    65    24    71 1   
    66    24    72 1   
    67    25    26 1   
    68    25    73 1   
    69    25    74 1   
    70    26    75 1   
    71    26    76 1   
    72    26    77 1   
    73    27    28 1   
    74    27    78 1   
    75    27    79 1   
    76    27    84 1   
    77    28    29 1   
    78    28    30 1   
    79    28    80 1   
    80    29    32 1   
    81    29    81 1   
    82    29    82 1   
    83    83    84 1   
@<TRIPOS>SUBSTRUCTURE
     1 BQ9         1 TEMP              0 ****  ****    0 ROOT
