@<TRIPOS>MOLECULE
BQ9
   84    83     1     0     0
SMALL
No Charge or Current Charge


@<TRIPOS>ATOM
      1 C10          1.4790    -1.2630    -1.4240 c          1 BQ9       0.595100
      2 C11         -2.7680    -3.6230     1.2250 c          1 BQ9       0.591100
      3 C12          2.0940    -0.1690    -0.5480 c3         1 BQ9      -0.138400
      4 C13          3.4340    -0.6300     0.0730 c3         1 BQ9      -0.065400
      5 C14          4.0580     0.4230     1.0130 c3         1 BQ9      -0.041200
      6 C15          5.4110    -0.0110     1.5390 c2         1 BQ9      -0.221200
      7 C16          6.5670     0.6340     1.3160 c2         1 BQ9      -0.210200
      8 C17          7.9250     0.2110     1.8350 c3         1 BQ9      -0.007000
      9 C18          8.9530     0.2430     0.7240 c2         1 BQ9      -0.216200
     10 C19         10.0770     0.9790     0.7260 c2         1 BQ9      -0.214200
     11 C20         11.1050     1.0180    -0.3840 c3         1 BQ9      -0.006000
     12 C21         11.3010     2.4370    -0.8750 c2         1 BQ9      -0.217200
     13 C22         12.4750     3.0870    -0.9330 c2         1 BQ9      -0.217200
     14 C23         12.6600     4.5090    -1.4250 c3         1 BQ9      -0.042200
     15 C24         13.0720     5.4680    -0.2920 c3         1 BQ9      -0.085100
     16 C31         -3.7100    -2.6060     1.8730 c3         1 BQ9      -0.136400
     17 C32         -5.0060    -2.4380     1.0440 c3         1 BQ9      -0.068400
     18 C33         -5.9110    -1.2990     1.5600 c3         1 BQ9      -0.075400
     19 C34         -7.1610    -1.0730     0.6800 c3         1 BQ9      -0.075400
     20 C35         -8.0160     0.1250     1.1470 c3         1 BQ9      -0.073400
     21 C36         -9.2190     0.4100     0.2220 c3         1 BQ9      -0.074400
     22 C37        -10.0290     1.6510     0.6580 c3         1 BQ9      -0.074400
     23 C38        -11.1960     1.9850    -0.2970 c3         1 BQ9      -0.074400
     24 C39        -11.9770     3.2480     0.1270 c3         1 BQ9      -0.075400
     25 C40        -13.1250     3.6060    -0.8410 c3         1 BQ9      -0.075400
     26 C41        -13.8980     4.8700    -0.4190 c3         1 BQ9      -0.088100
     27 C7          -1.1550    -2.3750    -2.5410 c3         1 BQ9       0.144600
     28 C8          -0.2260    -3.0020    -1.4440 c3         1 BQ9       0.176300
     29 C9          -0.9830    -3.8510    -0.3860 c3         1 BQ9       0.169600
     30 O16          0.5230    -1.9730    -0.7460 os         1 BQ9      -0.428100
     31 O17          1.8220    -1.4760    -2.5790 o          1 BQ9      -0.497000
     32 O18         -1.9300    -3.0260     0.3240 os         1 BQ9      -0.417100
     33 O19         -2.7860    -4.8220     1.4690 o          1 BQ9      -0.497000
     34 H1           2.2710     0.7220    -1.1630 hc         1 BQ9       0.074200
     35 H2           1.4040     0.0630     0.2730 hc         1 BQ9       0.074200
     36 H3           3.2760    -1.5610     0.6320 hc         1 BQ9       0.056700
     37 H4           4.1440    -0.8580    -0.7330 hc         1 BQ9       0.056700
     38 H5           4.1490     1.3740     0.4720 hc         1 BQ9       0.044200
     39 H6           3.3760     0.6070     1.8530 hc         1 BQ9       0.044200
     40 H7           5.3910    -0.9230     2.1420 ha         1 BQ9       0.168000
     41 H8           6.5850     1.5470     0.7170 ha         1 BQ9       0.169000
     42 H9           8.2260     0.8810     2.6510 hc         1 BQ9       0.049700
     43 H10          7.8750    -0.7960     2.2690 hc         1 BQ9       0.049700
     44 H11          8.7130    -0.4020    -0.1250 ha         1 BQ9       0.170000
     45 H12         10.3150     1.6210     1.5760 ha         1 BQ9       0.168000
     46 H13         12.0550     0.6020    -0.0220 hc         1 BQ9       0.049200
     47 H14         10.7920     0.3800    -1.2210 hc         1 BQ9       0.049200
     48 H15         10.3800     2.9260    -1.1980 ha         1 BQ9       0.168000
     49 H16         13.3970     2.5980    -0.6130 ha         1 BQ9       0.165000
     50 H17         13.4250     4.5350    -2.2140 hc         1 BQ9       0.042700
     51 H18         11.7320     4.8800    -1.8790 hc         1 BQ9       0.042700
     52 H19         13.1920     6.4880    -0.6770 hc         1 BQ9       0.033033
     53 H20         12.3070     5.4860     0.4950 hc         1 BQ9       0.033033
     54 H21         14.0240     5.1560     0.1560 hc         1 BQ9       0.033033
     55 H22         -3.9650    -2.9320     2.8880 hc         1 BQ9       0.074200
     56 H23         -3.2100    -1.6300     1.8900 hc         1 BQ9       0.074200
     57 H24         -4.7360    -2.2330    -0.0010 hc         1 BQ9       0.053200
     58 H25         -5.5660    -3.3820     1.0480 hc         1 BQ9       0.053200
     59 H26         -6.2250    -1.5200     2.5870 hc         1 BQ9       0.037200
     60 H27         -5.3290    -0.3690     1.5950 hc         1 BQ9       0.037200
     61 H28         -6.8430    -0.9030    -0.3560 hc         1 BQ9       0.039700
     62 H29         -7.7750    -1.9820     0.6820 hc         1 BQ9       0.039700
     63 H30         -8.3790    -0.0630     2.1660 hc         1 BQ9       0.037200
     64 H31         -7.3830     1.0200     1.1920 hc         1 BQ9       0.037200
     65 H32         -8.8550     0.5610    -0.8030 hc         1 BQ9       0.037700
     66 H33         -9.8780    -0.4670     0.2020 hc         1 BQ9       0.037700
     67 H34        -10.4240     1.4870     1.6690 hc         1 BQ9       0.036700
     68 H35         -9.3560     2.5160     0.7130 hc         1 BQ9       0.036700
     69 H36        -10.8000     2.1310    -1.3100 hc         1 BQ9       0.036700
     70 H37        -11.8830     1.1310    -0.3410 hc         1 BQ9       0.036700
     71 H38        -12.3880     3.0970     1.1340 hc         1 BQ9       0.036700
     72 H39        -11.2830     4.0960     0.1890 hc         1 BQ9       0.036700
     73 H40        -12.7160     3.7600    -1.8480 hc         1 BQ9       0.036700
     74 H41        -13.8240     2.7630    -0.9040 hc         1 BQ9       0.036700
     75 H42        -14.6990     5.0870    -1.1370 hc         1 BQ9       0.031367
     76 H43        -14.3520     4.7350     0.5710 hc         1 BQ9       0.031367
     77 H44        -13.2300     5.7390    -0.3780 hc         1 BQ9       0.031367
     78 H45         -0.5490    -2.1500    -3.4290 h1         1 BQ9       0.031200
     79 H46         -1.8910    -3.1290    -2.8500 h1         1 BQ9       0.031200
     80 H47          0.4670    -3.6880    -1.9510 h1         1 BQ9       0.070700
     81 H48         -1.4980    -4.6740    -0.8990 h1         1 BQ9       0.056200
     82 H49         -0.2570    -4.2910     0.3110 h1         1 BQ9       0.056200
     83 H50         -2.3930    -0.8740    -2.8440 ho         1 BQ9       0.440000
     84 O13         -1.8280    -1.1780    -2.1010 oh         1 BQ9      -0.635000
@<TRIPOS>BOND
     1     1     3 1   
     2     1    30 1   
     3     1    31 2   
     4     2    16 1   
     5     2    32 1   
     6     2    33 2   
     7     3     4 1   
     8     3    34 1   
     9     3    35 1   
    10     4     5 1   
    11     4    36 1   
    12     4    37 1   
    13     5     6 1   
    14     5    38 1   
    15     5    39 1   
    16     6     7 2   
    17     6    40 1   
    18     7     8 1   
    19     7    41 1   
    20     8     9 1   
    21     8    42 1   
    22     8    43 1   
    23     9    10 2   
    24     9    44 1   
    25    10    11 1   
    26    10    45 1   
    27    11    12 1   
    28    11    46 1   
    29    11    47 1   
    30    12    13 2   
    31    12    48 1   
    32    13    14 1   
    33    13    49 1   
    34    14    15 1   
    35    14    50 1   
    36    14    51 1   
    37    15    52 1   
    38    15    53 1   
    39    15    54 1   
    40    16    17 1   
    41    16    55 1   
    42    16    56 1   
    43    17    18 1   
    44    17    57 1   
    45    17    58 1   
    46    18    19 1   
    47    18    59 1   
    48    18    60 1   
    49    19    20 1   
    50    19    61 1   
    51    19    62 1   
    52    20    21 1   
    53    20    63 1   
    54    20    64 1   
    55    21    22 1   
    56    21    65 1   
    57    21    66 1   
    58    22    23 1   
    59    22    67 1   
    60    22    68 1   
    61    23    24 1   
    62    23    69 1   
    63    23    70 1   
    64    24    25 1   
    65    24    71 1   
    66    24    72 1   
    67    25    26 1   
    68    25    73 1   
    69    25    74 1   
    70    26    75 1   
    71    26    76 1   
    72    26    77 1   
    73    27    28 1   
    74    27    78 1   
    75    27    79 1   
    76    27    84 1   
    77    28    29 1   
    78    28    30 1   
    79    28    80 1   
    80    29    32 1   
    81    29    81 1   
    82    29    82 1   
    83    83    84 1   
@<TRIPOS>SUBSTRUCTURE
     1 BQ9         1 TEMP              0 ****  ****    0 ROOT
