@<TRIPOS>MOLECULE
BQA
   62    65     1     0     0
SMALL
abcg2


@<TRIPOS>ATOM
      1 N1          -2.5900    -0.2840     0.0760 n3         1 BQA      -0.723600
      2 C2           3.1440    -3.9570     0.4900 c3         1 BQA      -0.050400
      3 C4           5.4250    -2.7530     0.8870 cx         1 BQA      -0.145400
      4 C7           0.3410    -0.1870    -0.2630 c6         1 BQA      -0.089700
      5 C6           0.7630    -4.8170     0.2100 c          1 BQA       0.716000
      6 C9           2.1020     1.2110     0.9630 ca         1 BQA      -0.103500
      7 C10          3.2770     1.9540     0.9820 ca         1 BQA      -0.091000
      8 C11          3.9930     2.1170    -0.1900 ca         1 BQA      -0.023900
      9 F2          -3.8930     1.7180     1.7320 f          1 BQA      -0.114333
     10 F           -5.5380     0.4770     2.3500 f          1 BQA      -0.114333
     11 F1          -5.8480     2.5620     1.9580 f          1 BQA      -0.114333
     12 C22         -5.5140     1.1550     0.0910 ca         1 BQA      -0.175300
     13 C21         -6.4360     1.9570    -0.5750 ca         1 BQA      -0.075000
     14 C20         -6.8110     1.6730    -1.8800 ca         1 BQA      -0.128000
     15 C19         -6.2670     0.5770    -2.5250 ca         1 BQA      -0.085000
     16 C18         -5.3460    -0.2200    -1.8600 ca         1 BQA      -0.117000
     17 C17         -4.9460     0.0460    -0.5560 ca         1 BQA      -0.009300
     18 C16         -3.9160    -0.8670     0.0680 c3         1 BQA       0.202100
     19 C15         -1.7060    -0.9890     0.9850 c6         1 BQA       0.158800
     20 C14         -0.3730    -0.2700     1.0930 c6         1 BQA      -0.054400
     21 C24         -2.0120    -0.2040    -1.2500 c6         1 BQA       0.158800
     22 C25         -0.6530     0.4810    -1.2270 c6         1 BQA      -0.054400
     23 C8           1.6280     0.6290    -0.2070 ca         1 BQA      -0.037300
     24 C13          2.3760     0.8130    -1.3720 ca         1 BQA      -0.103500
     25 C12          3.5490     1.5480    -1.3760 ca         1 BQA      -0.091000
     26 BR           5.5950     3.1180    -0.1770 br         1 BQA      -0.129100
     27 C            0.7470    -1.5810    -0.7930 c          1 BQA       0.603100
     28 O            0.6110    -1.8810    -1.9750 o          1 BQA      -0.645100
     29 N            1.3200    -2.3910     0.0990 ns         1 BQA      -0.436900
     30 C1           1.7890    -3.7240    -0.1830 c3         1 BQA      -0.040300
     31 C3           4.1900    -2.9600     0.0630 cx         1 BQA      -0.100700
     32 C5           4.3800    -1.6800     0.8130 cx         1 BQA      -0.145400
     33 H2           3.0290    -3.9250     1.5810 hc         1 BQA       0.052200
     34 H3           3.4700    -4.9700     0.2470 hc         1 BQA       0.052200
     35 H4           5.5170    -3.3110     1.8110 hc         1 BQA       0.059950
     36 H5           6.3650    -2.5940     0.3730 hc         1 BQA       0.059950
     37 H6           1.5680     1.0990     1.8960 ha         1 BQA       0.127500
     38 H7           3.6170     2.3900     1.9120 ha         1 BQA       0.121500
     39 H8          -6.8810     2.8100    -0.0850 ha         1 BQA       0.123000
     40 H9          -7.5300     2.3070    -2.3810 ha         1 BQA       0.111000
     41 H10         -6.5530     0.3400    -3.5410 ha         1 BQA       0.113000
     42 H11         -4.9200    -1.0780    -2.3680 ha         1 BQA       0.126000
     43 H12         -3.9380    -1.8260    -0.4780 h1         1 BQA       0.052700
     44 H13         -4.1890    -1.1090     1.0950 h1         1 BQA       0.052700
     45 H14         -2.1710    -1.0150     1.9730 h1         1 BQA       0.053200
     46 H15         -1.5430    -2.0390     0.6850 h1         1 BQA       0.053200
     47 H16          0.2320    -0.7460     1.8680 hc         1 BQA       0.046200
     48 H17         -0.5650     0.7470     1.4470 hc         1 BQA       0.046200
     49 H18         -1.9250    -1.2020    -1.7100 h1         1 BQA       0.053200
     50 H19         -2.6740     0.3790    -1.8950 h1         1 BQA       0.053200
     51 H20         -0.7880     1.5160    -0.9010 hc         1 BQA       0.046200
     52 H21         -0.2570     0.5190    -2.2420 hc         1 BQA       0.046200
     53 H22          2.0470     0.3700    -2.3040 ha         1 BQA       0.127500
     54 H23          4.1040     1.6680    -2.2970 ha         1 BQA       0.121500
     55 H24          1.3530    -2.0990     1.0610 hn         1 BQA       0.300500
     56 H25          1.9380    -3.7930    -1.2640 h1         1 BQA       0.068700
     57 H27          4.3300    -2.8950    -1.0130 hc         1 BQA       0.071700
     58 H28          3.7660    -1.5120     1.6890 hc         1 BQA       0.059950
     59 H29          4.5900    -0.7790     0.2510 hc         1 BQA       0.059950
     60 O2          -0.3110    -4.4550     0.7190 o          1 BQA      -0.725000
     61 O1           1.1230    -5.9870    -0.0330 o          1 BQA      -0.725000
     62 C23         -5.1900     1.4790     1.5230 c3         1 BQA       0.356300
@<TRIPOS>BOND
     1     1    18 1   
     2     1    19 1   
     3     1    21 1   
     4     2    30 1   
     5     2    31 1   
     6     2    33 1   
     7     2    34 1   
     8     3    31 1   
     9     3    32 1   
    10     3    35 1   
    11     3    36 1   
    12     4    20 1   
    13     4    22 1   
    14     4    23 1   
    15     4    27 1   
    16     5    30 1   
    17     5    60 1   
    18     5    61 1   
    19     6     7 ar  
    20     6    23 ar  
    21     6    37 1   
    22     7     8 ar  
    23     7    38 1   
    24     8    25 ar  
    25     8    26 1   
    26     9    62 1   
    27    10    62 1   
    28    11    62 1   
    29    12    13 ar  
    30    12    17 ar  
    31    12    62 1   
    32    13    14 ar  
    33    13    39 1   
    34    14    15 ar  
    35    14    40 1   
    36    15    16 ar  
    37    15    41 1   
    38    16    17 ar  
    39    16    42 1   
    40    17    18 1   
    41    18    43 1   
    42    18    44 1   
    43    19    20 1   
    44    19    45 1   
    45    19    46 1   
    46    20    47 1   
    47    20    48 1   
    48    21    22 1   
    49    21    49 1   
    50    21    50 1   
    51    22    51 1   
    52    22    52 1   
    53    23    24 ar  
    54    24    25 ar  
    55    24    53 1   
    56    25    54 1   
    57    27    28 2   
    58    27    29 1   
    59    29    30 1   
    60    29    55 1   
    61    30    56 1   
    62    31    32 1   
    63    31    57 1   
    64    32    58 1   
    65    32    59 1   
@<TRIPOS>SUBSTRUCTURE
     1 BQA         1 TEMP              0 ****  ****    0 ROOT
