@<TRIPOS>MOLECULE
BQA
   62    65     1     0     0
SMALL
No Charge or Current Charge


@<TRIPOS>ATOM
      1 N1          -2.3050    -0.1450     0.3400 n3         1 BQA      -0.723600
      2 C2           2.4660    -4.2430     0.4070 c3         1 BQA      -0.050400
      3 C4           4.9060    -3.5720     1.1540 cx         1 BQA      -0.145400
      4 C7           0.6800     0.1500    -0.2850 c6         1 BQA      -0.089700
      5 C6           0.0420    -4.7080    -0.2740 c          1 BQA       0.716000
      6 C9           2.8850     1.0750     0.6690 ca         1 BQA      -0.103500
      7 C10          3.9810     1.9550     0.6590 ca         1 BQA      -0.091000
      8 C11          4.0900     2.9280    -0.3430 ca         1 BQA      -0.023900
      9 F2          -3.8290     2.2830     1.1800 f          1 BQA      -0.114333
     10 F           -5.2950     1.1550     2.3300 f          1 BQA      -0.114333
     11 F1          -5.8810     2.9510     1.2830 f          1 BQA      -0.114333
     12 C22         -5.4370     0.9930    -0.0640 ca         1 BQA      -0.175300
     13 C21         -6.4540     1.4240    -0.9530 ca         1 BQA      -0.075000
     14 C20         -6.7860     0.6740    -2.0920 ca         1 BQA      -0.128000
     15 C19         -6.1120    -0.5210    -2.3670 ca         1 BQA      -0.085000
     16 C18         -5.1030    -0.9650    -1.5000 ca         1 BQA      -0.117000
     17 C17         -4.7500    -0.2240    -0.3520 ca         1 BQA      -0.009300
     18 C16         -3.6300    -0.7880     0.5370 c3         1 BQA       0.202100
     19 C15         -1.3060    -0.6050     1.3320 c6         1 BQA       0.158800
     20 C14          0.0700     0.1090     1.1740 c6         1 BQA      -0.054400
     21 C24         -1.7830    -0.2700    -1.0430 c6         1 BQA       0.158800
     22 C25         -0.5050     0.5820    -1.2150 c6         1 BQA      -0.054400
     23 C8           1.8750     1.1530    -0.3200 ca         1 BQA      -0.037300
     24 C13          2.0120     2.1370    -1.3320 ca         1 BQA      -0.103500
     25 C12          3.1080     3.0180    -1.3390 ca         1 BQA      -0.091000
     26 Br           5.5820     4.1240    -0.3580 br         1 BQA      -0.129100
     27 C            1.2210    -1.2280    -0.8020 c          1 BQA       0.603100
     28 O            2.0110    -1.2920    -1.7380 o          1 BQA      -0.645100
     29 N            0.8630    -2.3640    -0.1040 ns         1 BQA      -0.436900
     30 C1           1.2620    -3.7530    -0.4380 c3         1 BQA      -0.040300
     31 C3           3.7520    -3.4500     0.1870 cx         1 BQA      -0.100700
     32 C5           4.1180    -2.2850     1.0740 cx         1 BQA      -0.145400
     33 H2           2.1900    -4.2290     1.4680 hc         1 BQA       0.052200
     34 H3           2.6570    -5.2940     0.1560 hc         1 BQA       0.052200
     35 H4           4.7710    -4.1930     2.0360 hc         1 BQA       0.059950
     36 H5           5.9120    -3.5760     0.7420 hc         1 BQA       0.059950
     37 H6           2.8360     0.3260     1.4520 ha         1 BQA       0.127500
     38 H7           4.7460     1.8780     1.4290 ha         1 BQA       0.121500
     39 H8          -7.0010     2.3470    -0.7720 ha         1 BQA       0.123000
     40 H9          -7.5690     1.0220    -2.7620 ha         1 BQA       0.111000
     41 H10         -6.3690    -1.1030    -3.2490 ha         1 BQA       0.113000
     42 H11         -4.5850    -1.8940    -1.7270 ha         1 BQA       0.126000
     43 H12         -3.5430    -1.8670     0.3460 h1         1 BQA       0.052700
     44 H13         -3.9340    -0.7010     1.5870 h1         1 BQA       0.052700
     45 H14         -1.6750    -0.4060     2.3500 h1         1 BQA       0.053200
     46 H15         -1.1860    -1.6940     1.2640 h1         1 BQA       0.053200
     47 H16          0.7750    -0.3510     1.8780 hc         1 BQA       0.046200
     48 H17         -0.0570     1.1440     1.5220 hc         1 BQA       0.046200
     49 H18         -1.5730    -1.3200    -1.2920 h1         1 BQA       0.053200
     50 H19         -2.5260     0.0910    -1.7690 h1         1 BQA       0.053200
     51 H20         -0.7660     1.6320    -1.0220 hc         1 BQA       0.046200
     52 H21         -0.1970     0.5270    -2.2680 hc         1 BQA       0.046200
     53 H22          1.2820     2.2350    -2.1290 ha         1 BQA       0.127500
     54 H23          3.1950     3.7680    -2.1220 ha         1 BQA       0.121500
     55 H24          0.2390    -2.2380     0.6800 hn         1 BQA       0.300500
     56 H25          1.5470    -3.7890    -1.4970 h1         1 BQA       0.068700
     57 H27          4.0150    -3.3670    -0.8660 hc         1 BQA       0.071700
     58 H28          3.4570    -2.0460     1.9030 hc         1 BQA       0.059950
     59 H29          4.5950    -1.4270     0.6070 hc         1 BQA       0.059950
     60 O2          -0.6250    -4.6300     0.7500 o          1 BQA      -0.725000
     61 O1          -0.2550    -5.4310    -1.2140 o          1 BQA      -0.725000
     62 C23         -5.1080     1.8450     1.1820 c3         1 BQA       0.356300
@<TRIPOS>BOND
     1     1    18 1   
     2     1    19 1   
     3     1    21 1   
     4     2    30 1   
     5     2    31 1   
     6     2    33 1   
     7     2    34 1   
     8     3    31 1   
     9     3    32 1   
    10     3    35 1   
    11     3    36 1   
    12     4    20 1   
    13     4    22 1   
    14     4    23 1   
    15     4    27 1   
    16     5    30 1   
    17     5    60 1   
    18     5    61 1   
    19     6     7 ar  
    20     6    23 ar  
    21     6    37 1   
    22     7     8 ar  
    23     7    38 1   
    24     8    25 ar  
    25     8    26 1   
    26     9    62 1   
    27    10    62 1   
    28    11    62 1   
    29    12    13 ar  
    30    12    17 ar  
    31    12    62 1   
    32    13    14 ar  
    33    13    39 1   
    34    14    15 ar  
    35    14    40 1   
    36    15    16 ar  
    37    15    41 1   
    38    16    17 ar  
    39    16    42 1   
    40    17    18 1   
    41    18    43 1   
    42    18    44 1   
    43    19    20 1   
    44    19    45 1   
    45    19    46 1   
    46    20    47 1   
    47    20    48 1   
    48    21    22 1   
    49    21    49 1   
    50    21    50 1   
    51    22    51 1   
    52    22    52 1   
    53    23    24 ar  
    54    24    25 ar  
    55    24    53 1   
    56    25    54 1   
    57    27    28 2   
    58    27    29 1   
    59    29    30 1   
    60    29    55 1   
    61    30    56 1   
    62    31    32 1   
    63    31    57 1   
    64    32    58 1   
    65    32    59 1   
@<TRIPOS>SUBSTRUCTURE
     1 BQA         1 TEMP              0 ****  ****    0 ROOT
