@<TRIPOS>MOLECULE
BQC
   48    52     1     0     0
SMALL
bcc


@<TRIPOS>ATOM
      1 S1          -5.8770     1.5790    -0.8830 s6         1 BQC       1.190900
      2 O1           1.6180     1.0870     2.4570 o          1 BQC      -0.553100
      3 O2          -1.1310    -3.2120    -1.0800 o          1 BQC      -0.594100
      4 O3          -7.0210     0.7250    -1.1560 o          1 BQC      -0.587300
      5 O4          -6.0560     3.0110    -1.0290 o          1 BQC      -0.587300
      6 N4          -5.2340     1.2590     0.6390 nu         1 BQC      -0.677500
      7 C15         -4.2360     0.2930     0.5710 ca         1 BQC       0.160600
      8 C11         -3.7290    -0.4230     1.6440 ca         1 BQC      -0.154000
      9 C17         -4.4050     0.9740    -1.7340 c5         1 BQC      -0.132300
     10 C16         -3.7360     0.1040    -0.7190 ca         1 BQC      -0.132300
     11 C14         -2.7130    -0.7910    -0.9420 ca         1 BQC      -0.019000
     12 C13         -2.1470    -1.4720     0.1360 ca         1 BQC      -0.171600
     13 C12         -2.6760    -1.2950     1.4130 ca         1 BQC      -0.059000
     14 C9          -1.0430    -2.4370    -0.1380 c          1 BQC       0.686700
     15 N1           0.0210    -2.4410     0.7030 n          1 BQC      -0.468800
     16 C5           1.0870    -3.4010     0.4810 c6         1 BQC       0.096000
     17 C4           2.1720    -2.7850    -0.3900 c6         1 BQC      -0.078200
     18 C6           0.4380    -1.3080     1.5100 c6         1 BQC       0.162200
     19 C2           1.7600    -0.7730     1.0390 cc         1 BQC      -0.301400
     20 C7           2.2300     0.4890     1.5780 c          1 BQC       0.712700
     21 N2           3.3930     1.0130     1.0570 nc         1 BQC      -0.695100
     22 C1           4.0740     0.3490     0.1790 cd         1 BQC       0.722800
     23 N3           3.6930    -0.8650    -0.2700 na         1 BQC      -0.694000
     24 C3           2.5280    -1.4380     0.1480 cd         1 BQC       0.141800
     25 C21          5.3200     0.9230    -0.3640 ca         1 BQC      -0.161900
     26 C20          6.0290     1.8440     0.4060 ca         1 BQC      -0.089000
     27 C19          7.1980     2.4060    -0.0790 ca         1 BQC      -0.134000
     28 C22          5.7930     0.5830    -1.6310 ca         1 BQC      -0.089000
     29 C23          6.9600     1.1540    -2.1160 ca         1 BQC      -0.134000
     30 C18          7.6660     2.0630    -1.3410 ca         1 BQC      -0.101000
     31 H1          -5.8740     1.2740     1.4250 hn         1 BQC       0.453800
     32 H2          -4.1410    -0.3060     2.6370 ha         1 BQC       0.149000
     33 H3          -4.7200     0.4540    -2.6390 h1         1 BQC       0.118700
     34 H4          -3.8050     1.8440    -2.0060 h1         1 BQC       0.118700
     35 H5          -2.3330    -0.9390    -1.9450 ha         1 BQC       0.155000
     36 H6          -2.2690    -1.8500     2.2500 ha         1 BQC       0.145000
     37 H7           1.5020    -3.6740     1.4530 h1         1 BQC       0.070700
     38 H8           0.6930    -4.3030     0.0240 h1         1 BQC       0.070700
     39 H9           3.0570    -3.4270    -0.3990 hc         1 BQC       0.071200
     40 H10          1.8350    -2.6930    -1.4250 hc         1 BQC       0.071200
     41 H11         -0.2980    -0.5090     1.4560 h1         1 BQC       0.077200
     42 H12          0.5020    -1.6010     2.5630 h1         1 BQC       0.077200
     43 H13          4.2970    -1.3910    -0.8850 hn         1 BQC       0.454800
     44 H14          5.6620     2.1110     1.3880 ha         1 BQC       0.145000
     45 H15          7.7450     3.1140     0.5300 ha         1 BQC       0.139500
     46 H16          5.2470    -0.1020    -2.2680 ha         1 BQC       0.145000
     47 H17          7.3130     0.8890    -3.1040 ha         1 BQC       0.139500
     48 H18          8.5760     2.5080    -1.7210 ha         1 BQC       0.137000
@<TRIPOS>BOND
     1     1     4 2   
     2     1     5 2   
     3     1     6 1   
     4     1     9 1   
     5     2    20 2   
     6     3    14 2   
     7     6     7 1   
     8     6    31 1   
     9     7     8 ar  
    10     7    10 ar  
    11     8    13 ar  
    12     8    32 1   
    13     9    10 1   
    14     9    33 1   
    15     9    34 1   
    16    10    11 ar  
    17    11    12 ar  
    18    11    35 1   
    19    12    13 ar  
    20    12    14 1   
    21    13    36 1   
    22    14    15 1   
    23    15    16 1   
    24    15    18 1   
    25    16    17 1   
    26    16    37 1   
    27    16    38 1   
    28    17    24 1   
    29    17    39 1   
    30    17    40 1   
    31    18    19 1   
    32    18    41 1   
    33    18    42 1   
    34    19    20 1   
    35    19    24 2   
    36    20    21 1   
    37    21    22 2   
    38    22    23 1   
    39    22    25 1   
    40    23    24 1   
    41    23    43 1   
    42    25    26 ar  
    43    25    28 ar  
    44    26    27 ar  
    45    26    44 1   
    46    27    30 ar  
    47    27    45 1   
    48    28    29 ar  
    49    28    46 1   
    50    29    30 ar  
    51    29    47 1   
    52    30    48 1   
@<TRIPOS>SUBSTRUCTURE
     1 BQC         1 TEMP              0 ****  ****    0 ROOT
