@<TRIPOS>MOLECULE
BQC
   48    52     1     0     0
SMALL
No Charge or Current Charge


@<TRIPOS>ATOM
      1 S1          -6.5530     1.3050    -0.4390 s6         1 BQC       1.160100
      2 O1           1.7040     1.4190     1.9280 o          1 BQC      -0.553100
      3 O2          -1.3190    -2.9750    -1.3370 o          1 BQC      -0.594100
      4 O3          -7.7260     0.4560    -0.2280 o          1 BQC      -0.516500
      5 O4          -6.6830     2.7500    -0.6410 o          1 BQC      -0.516500
      6 N4          -5.6360     1.1130     0.9160 nu         1 BQC      -0.871100
      7 C15         -4.5310     0.3140     0.7080 ca         1 BQC       0.299000
      8 C11         -3.6950    -0.1710     1.7160 ca         1 BQC      -0.136000
      9 C17         -5.3480     0.5450    -1.6180 c5         1 BQC      -0.243100
     10 C16         -4.3130    -0.0160    -0.6370 ca         1 BQC      -0.132300
     11 C14         -3.2270    -0.8310    -0.9930 ca         1 BQC      -0.001000
     12 C13         -2.3450    -1.3050     0.0070 ca         1 BQC      -0.171600
     13 C12         -2.6020    -0.9860     1.3660 ca         1 BQC      -0.041000
     14 C9          -1.1920    -2.1970    -0.3990 c          1 BQC       0.619700
     15 N1          -0.0080    -2.1840     0.3730 n          1 BQC      -0.401800
     16 C5           1.0350    -3.2220     0.2000 c6         1 BQC       0.096000
     17 C4           2.1910    -2.6910    -0.6660 c6         1 BQC      -0.078200
     18 C6           0.4860    -0.9530     1.0530 c6         1 BQC       0.162200
     19 C2           1.9050    -0.5740     0.6640 cc         1 BQC      -0.301400
     20 C7           2.3710     0.6940     1.2070 c          1 BQC       0.712700
     21 N2           3.6290     1.0340     0.8510 nc         1 BQC      -0.695100
     22 C1           4.4180     0.3200     0.0840 cd         1 BQC       0.722800
     23 N3           3.9700    -0.9020    -0.4040 na         1 BQC      -0.749200
     24 C3           2.6880    -1.3730    -0.1290 cd         1 BQC       0.141800
     25 C21          5.7760     0.8340    -0.2330 ca         1 BQC      -0.161900
     26 C20          6.3240     1.9290     0.4810 ca         1 BQC      -0.071000
     27 C19          7.6000     2.4300     0.1680 ca         1 BQC      -0.116000
     28 C22          6.5400     0.2780    -1.2900 ca         1 BQC      -0.071000
     29 C23          7.8150     0.7840    -1.6000 ca         1 BQC      -0.116000
     30 C18          8.3480     1.8570    -0.8700 ca         1 BQC      -0.083000
     31 H1          -6.2850     0.7850     1.6190 hn         1 BQC       0.509000
     32 H2          -3.8880     0.0760     2.7560 ha         1 BQC       0.131000
     33 H3          -5.8820    -0.2140    -2.1990 h1         1 BQC       0.118700
     34 H4          -4.9590     1.3480    -2.2530 h1         1 BQC       0.118700
     35 H5          -3.0660    -1.0890    -2.0380 ha         1 BQC       0.137000
     36 H6          -1.9720    -1.3860     2.1570 ha         1 BQC       0.127000
     37 H7           1.4230    -3.5040     1.1900 h1         1 BQC       0.070700
     38 H8           0.6140    -4.1320    -0.2510 h1         1 BQC       0.070700
     39 H9           2.9990    -3.4340    -0.6940 hc         1 BQC       0.071200
     40 H10          1.8440    -2.5640    -1.7000 hc         1 BQC       0.071200
     41 H11         -0.1790    -0.1100     0.8150 h1         1 BQC       0.077200
     42 H12          0.4260    -1.1070     2.1400 h1         1 BQC       0.077200
     43 H13          4.6080    -1.4500    -0.9640 hn         1 BQC       0.510000
     44 H14          5.7700     2.3970     1.2930 ha         1 BQC       0.127000
     45 H15          8.0070     3.2660     0.7320 ha         1 BQC       0.121500
     46 H16          6.1560    -0.5420    -1.8920 ha         1 BQC       0.127000
     47 H17          8.3900     0.3440    -2.4130 ha         1 BQC       0.121500
     48 H18          9.3350     2.2460    -1.1130 ha         1 BQC       0.119000
@<TRIPOS>BOND
     1     1     4 2   
     2     1     5 2   
     3     1     6 1   
     4     1     9 1   
     5     2    20 2   
     6     3    14 2   
     7     6     7 1   
     8     6    31 1   
     9     7     8 ar  
    10     7    10 ar  
    11     8    13 ar  
    12     8    32 1   
    13     9    10 1   
    14     9    33 1   
    15     9    34 1   
    16    10    11 ar  
    17    11    12 ar  
    18    11    35 1   
    19    12    13 ar  
    20    12    14 1   
    21    13    36 1   
    22    14    15 1   
    23    15    16 1   
    24    15    18 1   
    25    16    17 1   
    26    16    37 1   
    27    16    38 1   
    28    17    24 1   
    29    17    39 1   
    30    17    40 1   
    31    18    19 1   
    32    18    41 1   
    33    18    42 1   
    34    19    20 1   
    35    19    24 2   
    36    20    21 1   
    37    21    22 2   
    38    22    23 1   
    39    22    25 1   
    40    23    24 1   
    41    23    43 1   
    42    25    26 ar  
    43    25    28 ar  
    44    26    27 ar  
    45    26    44 1   
    46    27    30 ar  
    47    27    45 1   
    48    28    29 ar  
    49    28    46 1   
    50    29    30 ar  
    51    29    47 1   
    52    30    48 1   
@<TRIPOS>SUBSTRUCTURE
     1 BQC         1 TEMP              0 ****  ****    0 ROOT
