@<TRIPOS>MOLECULE
BQD
   43    45     1     0     0
SMALL
No Charge or Current Charge


@<TRIPOS>ATOM
      1 C10          5.4830    -2.2580     0.5680 c5         1 BQD      -0.133400
      2 C15         -0.8700    -1.0120    -0.8680 ca         1 BQD      -0.179000
      3 C17         -3.1350    -1.5740    -1.5830 ca         1 BQD      -0.106000
      4 C21         -4.1610     0.4480     0.0850 ca         1 BQD      -0.055000
      5 C22         -2.7720     0.2240     0.0260 ca         1 BQD      -0.063000
      6 C24         -0.5060     0.7780     0.7350 ca         1 BQD      -0.111000
      7 O01          2.5180     1.0830     1.0480 o          1 BQD      -0.543100
      8 C02          2.5310     0.0830     0.3320 c          1 BQD       0.631100
      9 C03          3.7890    -0.7010    -0.1650 c5         1 BQD       0.031700
     10 N04          5.1030    -0.0120     0.0310 n          1 BQD      -0.406800
     11 C05          5.3760     1.2750    -0.4780 c          1 BQD       0.613100
     12 C06          6.7130     1.9430    -0.0990 c3         1 BQD      -0.147400
     13 C07          6.8650     3.4260    -0.5080 c3         1 BQD      -0.077100
     14 O08          4.5650     1.8350    -1.2060 o          1 BQD      -0.598100
     15 C09          6.0860    -0.8420     0.7580 c5         1 BQD       0.117000
     16 C11          3.9600    -2.0050     0.6900 c5         1 BQD       0.160300
     17 O12          3.5790    -1.8460     2.0590 oh         1 BQD      -0.640000
     18 N13          1.4040    -0.5220    -0.2140 ns         1 BQD      -0.149000
     19 C14          0.0180    -0.2330    -0.1020 ca         1 BQD       0.006000
     20 C16         -2.2580    -0.7890    -0.8100 ca         1 BQD       0.002000
     21 C18         -4.5220    -1.3480    -1.5230 ca         1 BQD      -0.082000
     22 C19         -5.0320    -0.3380    -0.6900 ca         1 BQD      -0.028900
     23 Br          -6.9180    -0.0330    -0.6090 br         1 BQD      -0.103100
     24 C23         -1.8920     1.0040     0.7960 ca         1 BQD      -0.075000
     25 H102         5.7300    -2.6520    -0.4250 hc         1 BQD       0.061200
     26 H101         5.8630    -2.9770     1.3020 hc         1 BQD       0.061200
     27 H171        -2.7450    -2.3560    -2.2290 ha         1 BQD       0.114000
     28 H211        -4.5660     1.2270     0.7270 ha         1 BQD       0.129000
     29 H241         0.1410     1.3960     1.3500 ha         1 BQD       0.150000
     30 H031         3.6530    -0.9460    -1.2260 h1         1 BQD       0.072700
     31 H062         6.8780     1.8040     0.9760 hc         1 BQD       0.055700
     32 H061         7.5210     1.3350    -0.5220 hc         1 BQD       0.055700
     33 H073         6.0860     4.0390    -0.0400 hc         1 BQD       0.043033
     34 H1           7.8410     3.8120    -0.1920 hc         1 BQD       0.043033
     35 H072         6.7890     3.5390    -1.5970 hc         1 BQD       0.043033
     36 H092         6.1280    -0.5550     1.8180 h1         1 BQD       0.056700
     37 H091         7.0970    -0.7770     0.3350 h1         1 BQD       0.056700
     38 H111         3.3890    -2.8340     0.2490 h1         1 BQD       0.044700
     39 H121         3.7750    -2.6950     2.5120 ho         1 BQD       0.449000
     40 H131         1.6040    -1.3230    -0.7990 hn         1 BQD       0.145000
     41 H181        -5.1970    -1.9550    -2.1210 ha         1 BQD       0.127000
     42 H231        -2.2790     1.7860     1.4460 ha         1 BQD       0.119000
     43 H151        -0.4790    -1.7950    -1.5140 ha         1 BQD       0.109000
@<TRIPOS>BOND
     1     1    15 1   
     2     1    16 1   
     3     1    25 1   
     4     1    26 1   
     5     2    19 ar  
     6     2    20 ar  
     7     2    43 1   
     8     3    20 ar  
     9     3    21 ar  
    10     3    27 1   
    11     4     5 ar  
    12     4    22 ar  
    13     4    28 1   
    14     5    20 ar  
    15     5    24 ar  
    16     6    19 ar  
    17     6    24 ar  
    18     6    29 1   
    19     7     8 2   
    20     8     9 1   
    21     8    18 1   
    22     9    10 1   
    23     9    16 1   
    24     9    30 1   
    25    10    11 1   
    26    10    15 1   
    27    11    12 1   
    28    11    14 2   
    29    12    13 1   
    30    12    31 1   
    31    12    32 1   
    32    13    33 1   
    33    13    34 1   
    34    13    35 1   
    35    15    36 1   
    36    15    37 1   
    37    16    17 1   
    38    16    38 1   
    39    17    39 1   
    40    18    19 1   
    41    18    40 1   
    42    21    22 ar  
    43    21    41 1   
    44    22    23 1   
    45    24    42 1   
@<TRIPOS>SUBSTRUCTURE
     1 BQD         1 TEMP              0 ****  ****    0 ROOT
