@<TRIPOS>MOLECULE
BQD
   43    45     1     0     0
SMALL
bcc


@<TRIPOS>ATOM
      1 C10          5.5200    -2.2240     0.5880 c5         1 BQD      -0.133400
      2 C15         -0.7830    -1.0480    -0.8770 ca         1 BQD      -0.197000
      3 C17         -3.1330    -1.7010    -1.2550 ca         1 BQD      -0.124000
      4 C21         -3.9880     0.5800     0.1200 ca         1 BQD      -0.073000
      5 C22         -2.6030     0.3400    -0.0360 ca         1 BQD      -0.063000
      6 C24         -0.2930     0.9830     0.3290 ca         1 BQD      -0.129000
      7 O01          2.5390     0.7590     1.0440 o          1 BQD      -0.543100
      8 C02          2.5760    -0.0500     0.1440 c          1 BQD       0.698100
      9 C03          3.8610    -0.7470    -0.2910 c5         1 BQD       0.031700
     10 N04          5.0370    -0.0110     0.1090 n          1 BQD      -0.473800
     11 C05          5.2590     1.2260    -0.3770 c          1 BQD       0.680100
     12 C06          6.5100     1.9260     0.1060 c3         1 BQD      -0.147400
     13 C07          6.5960     3.3750    -0.3380 c3         1 BQD      -0.077100
     14 O08          4.4800     1.7390    -1.1700 o          1 BQD      -0.598100
     15 C09          5.9330    -0.8020     0.9410 c5         1 BQD       0.117000
     16 C11          4.0110    -2.1150     0.4020 c5         1 BQD       0.137100
     17 O12          3.3290    -2.0610     1.6310 oh         1 BQD      -0.577800
     18 N13          1.4970    -0.4650    -0.5700 ns         1 BQD      -0.475100
     19 C14          0.1460    -0.1770    -0.3570 ca         1 BQD       0.098600
     20 C16         -2.1640    -0.8120    -0.7320 ca         1 BQD       0.002000
     21 C18         -4.4690    -1.4610    -1.0970 ca         1 BQD      -0.100000
     22 C19         -4.8880    -0.3060    -0.4030 ca         1 BQD      -0.028900
     23 BR          -6.7390     0.0050    -0.2000 br         1 BQD      -0.103100
     24 C23         -1.6300     1.2220     0.4820 ca         1 BQD      -0.093000
     25 H102         5.9870    -2.5240    -0.3520 hc         1 BQD       0.061200
     26 H101         5.7980    -2.9560     1.3470 hc         1 BQD       0.061200
     27 H171        -2.8090    -2.5880    -1.7860 ha         1 BQD       0.132000
     28 H211        -4.3100     1.4670     0.6500 ha         1 BQD       0.147000
     29 H241         0.4200     1.6870     0.7260 ha         1 BQD       0.168000
     30 H031         3.8490    -0.8920    -1.3770 h1         1 BQD       0.072700
     31 H062         6.5580     1.8590     1.1970 hc         1 BQD       0.055700
     32 H061         7.3810     1.3710    -0.2570 hc         1 BQD       0.055700
     33 H073         5.7580     3.9620     0.0370 hc         1 BQD       0.043033
     34 H1           7.5130     3.8240     0.0430 hc         1 BQD       0.043033
     35 H072         6.6090     3.4650    -1.4230 hc         1 BQD       0.043033
     36 H092         5.7840    -0.5890     2.0030 h1         1 BQD       0.056700
     37 H091         6.9760    -0.6070     0.7000 h1         1 BQD       0.056700
     38 H111         3.6140    -2.9110    -0.2370 h1         1 BQD       0.044700
     39 H121         3.3590    -2.9380     2.0290 ho         1 BQD       0.410000
     40 H131         1.6690    -1.1710    -1.2710 hn         1 BQD       0.311500
     41 H181        -5.1960    -2.1520    -1.5010 ha         1 BQD       0.145000
     42 H231        -1.9530     2.1150     1.0040 ha         1 BQD       0.137000
     43 H151        -0.4570    -1.9390    -1.4010 ha         1 BQD       0.127000
@<TRIPOS>BOND
     1     1    15 1   
     2     1    16 1   
     3     1    25 1   
     4     1    26 1   
     5     2    19 ar  
     6     2    20 ar  
     7     2    43 1   
     8     3    20 ar  
     9     3    21 ar  
    10     3    27 1   
    11     4     5 ar  
    12     4    22 ar  
    13     4    28 1   
    14     5    20 ar  
    15     5    24 ar  
    16     6    19 ar  
    17     6    24 ar  
    18     6    29 1   
    19     7     8 2   
    20     8     9 1   
    21     8    18 1   
    22     9    10 1   
    23     9    16 1   
    24     9    30 1   
    25    10    11 1   
    26    10    15 1   
    27    11    12 1   
    28    11    14 2   
    29    12    13 1   
    30    12    31 1   
    31    12    32 1   
    32    13    33 1   
    33    13    34 1   
    34    13    35 1   
    35    15    36 1   
    36    15    37 1   
    37    16    17 1   
    38    16    38 1   
    39    17    39 1   
    40    18    19 1   
    41    18    40 1   
    42    21    22 ar  
    43    21    41 1   
    44    22    23 1   
    45    24    42 1   
@<TRIPOS>SUBSTRUCTURE
     1 BQD         1 TEMP              0 ****  ****    0 ROOT
