@<TRIPOS>MOLECULE
BQE
   64    67     1     0     0
SMALL
No Charge or Current Charge


@<TRIPOS>ATOM
      1 N          -31.6250    42.1120    12.0700 n3         1 BQE      -0.703600
      2 CA         -30.6300    41.0070    12.4160 c6         1 BQE       0.088500
      3 C          -29.2010    41.1090    11.7560 c          1 BQE       0.697500
      4 O          -28.9890    40.7890    10.5950 o          1 BQE      -0.589100
      5 CB         -30.4950    40.8620    13.9720 c6         1 BQE       0.155800
      6 CAG        -27.4870    48.1020     8.4870 ca         1 BQE       0.279900
      7 CAH        -28.5030    46.9200    10.2010 ca         1 BQE       0.305900
      8 CAI        -26.2020    46.3990     9.6360 ca         1 BQE      -0.137000
      9 CAJ        -32.7750    41.6980    14.3050 c6         1 BQE       0.146800
     10 CAK        -32.6120    43.6000    10.2410 c3         1 BQE      -0.069400
     11 CAL        -32.8820    43.0180     7.7270 c6         1 BQE      -0.072900
     12 CAM        -31.0800    44.6910     8.4530 c6         1 BQE      -0.072900
     13 CAN        -32.9340    41.8800    12.7640 c6         1 BQE       0.128800
     14 CAO        -31.7760    42.3470    10.6080 c3         1 BQE       0.162800
     15 CAP        -32.8290    43.5800     6.2810 c6         1 BQE      -0.118900
     16 CAQ        -31.0160    45.2650     7.0140 c6         1 BQE      -0.118900
     17 CAX        -24.9730    45.3390    12.5300 c          1 BQE       0.598300
     18 CAZ        -26.2660    47.3830     8.6360 ca         1 BQE       0.250000
     19 CBA        -27.3300    46.1700    10.4570 ca         1 BQE      -0.050800
     20 CBB        -27.7530    42.8130    12.2230 cc         1 BQE       0.673100
     21 CBC        -26.2430    44.5930    12.1940 cc         1 BQE      -0.007200
     22 CBD        -27.3330    45.1130    11.4900 cd         1 BQE      -0.029600
     23 CBE        -32.4880    44.1050     8.7690 c6         1 BQE      -0.061700
     24 CBH        -31.4490    44.2100     5.9680 c6         1 BQE       0.166000
     25 FAE        -31.4920    44.8100     4.6970 f          1 BQE      -0.132000
     26 FAF        -30.4750    43.1950     5.8920 f          1 BQE      -0.132000
     27 NAS        -28.5890    47.8770     9.2460 nb         1 BQE      -0.627000
     28 NAT        -26.5240    43.2620    12.5800 na         1 BQE      -0.701200
     29 NAU        -31.8050    40.6230    14.6460 n7         1 BQE      -0.841400
     30 NAV        -28.1350    41.6210    12.5230 nf         1 BQE      -0.768100
     31 OAC        -24.0040    44.7400    12.9880 o          1 BQE      -0.528100
     32 SAW        -28.7430    44.0640    11.5250 ss         1 BQE       0.015200
     33 H2         -31.0280    40.0520    12.0410 h1         1 BQE       0.047700
     34 H3         -29.8090    40.0310    14.2010 h1         1 BQE       0.070200
     35 H4         -30.0420    41.7790    14.3820 h1         1 BQE       0.070200
     36 H5         -24.2880    47.2850    13.2210 hc         1 BQE       0.073700
     37 H6         -24.4130    47.1290    11.4710 hc         1 BQE       0.073700
     38 H7         -25.8980    47.3210    12.3940 hc         1 BQE       0.073700
     39 H8         -27.5830    48.8740     7.7250 h4         1 BQE       0.022100
     40 H9         -29.4030    46.7660    10.7960 h4         1 BQE       0.032100
     41 H10        -25.3030    45.7980     9.7480 ha         1 BQE       0.126000
     42 H11        -32.4340    42.6510    14.7390 h1         1 BQE       0.061700
     43 H12        -33.7570    41.4710    14.7490 h1         1 BQE       0.061700
     44 H13        -33.6670    43.3890    10.4530 hc         1 BQE       0.051200
     45 H14        -32.3250    44.4140    10.9190 hc         1 BQE       0.051200
     46 H15        -33.8930    42.6420     7.9380 hc         1 BQE       0.054700
     47 H16        -32.2060    42.1540     7.8040 hc         1 BQE       0.054700
     48 H17        -30.3050    43.9200     8.5660 hc         1 BQE       0.054700
     49 H18        -30.8370    45.4840     9.1730 hc         1 BQE       0.054700
     50 H19        -33.6180    42.7240    12.6000 h1         1 BQE       0.035200
     51 H20        -33.4230    40.9850    12.3510 h1         1 BQE       0.035200
     52 H21        -30.7860    42.4810    10.1590 h1         1 BQE       0.035200
     53 H22        -32.2240    41.4650    10.1290 h1         1 BQE       0.035200
     54 H23        -33.0510    42.7820     5.5590 hc         1 BQE       0.065700
     55 H24        -33.6130    44.3390     6.1560 hc         1 BQE       0.065700
     56 H25        -31.6720    46.1440     6.9420 hc         1 BQE       0.065700
     57 H26        -29.9990    45.6190     6.7950 hc         1 BQE       0.065700
     58 H27        -33.2140    44.9270     8.6870 hc         1 BQE       0.045700
     59 H28        -24.3390    47.0030     7.8990 hn         1 BQE       0.461500
     60 H29        -25.2110    48.2460     7.0380 hn         1 BQE       0.461500
     61 H30        -32.1840    39.7330    14.2980 hn         1 BQE       0.400000
     62 H1         -25.8820    42.6530    13.0800 hn         1 BQE       0.549000
     63 NAB        -25.1570    47.6100     7.8350 nv         1 BQE      -1.079000
     64 CAA        -24.9010    46.8670    12.4150 c3         1 BQE      -0.181100
@<TRIPOS>BOND
     1     1     2 1   
     2     1    13 1   
     3     1    14 1   
     4     2     3 1   
     5     2     5 1   
     6     2    33 1   
     7     3     4 2   
     8     3    30 1   
     9     5    29 1   
    10     5    34 1   
    11     5    35 1   
    12     6    18 ar  
    13     6    27 ar  
    14     6    39 1   
    15     7    19 ar  
    16     7    27 ar  
    17     7    40 1   
    18     8    18 ar  
    19     8    19 ar  
    20     8    41 1   
    21     9    13 1   
    22     9    29 1   
    23     9    42 1   
    24     9    43 1   
    25    10    14 1   
    26    10    23 1   
    27    10    44 1   
    28    10    45 1   
    29    11    15 1   
    30    11    23 1   
    31    11    46 1   
    32    11    47 1   
    33    12    16 1   
    34    12    23 1   
    35    12    48 1   
    36    12    49 1   
    37    13    50 1   
    38    13    51 1   
    39    14    52 1   
    40    14    53 1   
    41    15    24 1   
    42    15    54 1   
    43    15    55 1   
    44    16    24 1   
    45    16    56 1   
    46    16    57 1   
    47    17    21 1   
    48    17    31 2   
    49    17    64 1   
    50    18    63 1   
    51    19    22 1   
    52    20    28 1   
    53    20    30 2   
    54    20    32 1   
    55    21    22 2   
    56    21    28 1   
    57    22    32 1   
    58    23    58 1   
    59    24    25 1   
    60    24    26 1   
    61    28    62 1   
    62    29    61 1   
    63    36    64 1   
    64    37    64 1   
    65    38    64 1   
    66    59    63 1   
    67    60    63 1   
@<TRIPOS>SUBSTRUCTURE
     1 BQE         1 TEMP              0 ****  ****    0 ROOT
