@<TRIPOS>MOLECULE
BQE
   64    67     1     0     0
SMALL
abcg2


@<TRIPOS>ATOM
      1 N          -32.5190    42.5130    12.5150 n3         1 BQE      -0.703600
      2 CA         -31.2770    42.4740    13.2900 c6         1 BQE       0.088500
      3 C          -30.2760    43.4780    12.7380 c          1 BQE       0.697500
      4 O          -30.5810    44.6660    12.5810 o          1 BQE      -0.589100
      5 CB         -31.5610    42.8140    14.7670 c6         1 BQE       0.155800
      6 CAG        -25.4220    49.1660     9.2370 ca         1 BQE       0.279900
      7 CAH        -26.0880    47.9280    11.0470 ca         1 BQE       0.305900
      8 CAI        -25.9980    46.8720     8.8950 ca         1 BQE      -0.137000
      9 CAJ        -33.7980    41.9650    14.5470 c6         1 BQE       0.146800
     10 CAK        -33.4170    42.6410    10.1830 c3         1 BQE      -0.069400
     11 CAL        -32.2360    41.8290     8.0690 c6         1 BQE      -0.072900
     12 CAM        -32.1120    44.2630     8.7130 c6         1 BQE      -0.072900
     13 CAN        -33.5220    41.6190    13.0900 c6         1 BQE       0.128800
     14 CAO        -32.2730    42.2060    11.1040 c3         1 BQE       0.162800
     15 CAP        -31.8370    42.1790     6.6330 c6         1 BQE      -0.118900
     16 CAQ        -31.7120    44.6300     7.2820 c6         1 BQE      -0.118900
     17 CAX        -24.7300    43.8850    10.6840 c          1 BQE       0.598300
     18 CAZ        -25.5590    48.0820     8.3520 ca         1 BQE       0.250000
     19 CBA        -26.2510    46.7870    10.2580 ca         1 BQE      -0.050800
     20 CBB        -28.1650    43.7750    11.9250 cc         1 BQE       0.673100
     21 CBC        -26.1050    44.3290    10.9950 cc         1 BQE      -0.007200
     22 CBD        -26.7240    45.5330    10.8590 cd         1 BQE      -0.029600
     23 CBE        -32.9680    42.9890     8.7570 c6         1 BQE      -0.061700
     24 CBH        -31.0460    43.4640     6.5940 c6         1 BQE       0.166000
     25 FAE        -30.7610    43.7980     5.2760 f          1 BQE      -0.132000
     26 FAF        -29.7950    43.2490     7.1720 f          1 BQE      -0.132000
     27 NAS        -25.6790    49.0910    10.5390 nb         1 BQE      -0.627000
     28 NAT        -26.9300    43.3820    11.5820 na         1 BQE      -0.701200
     29 NAU        -32.5870    41.9710    15.3700 n7         1 BQE      -0.841400
     30 NAV        -29.0440    42.9620    12.4620 nf         1 BQE      -0.768100
     31 OAC        -24.4520    42.7090    10.8790 o          1 BQE      -0.528100
     32 SAW        -28.3560    45.4730    11.4980 ss         1 BQE       0.015200
     33 H2         -30.8140    41.4770    13.2460 h1         1 BQE       0.047700
     34 H3         -30.6370    42.7230    15.3400 h1         1 BQE       0.070200
     35 H4         -31.8920    43.8540    14.8180 h1         1 BQE       0.070200
     36 H5         -22.7250    44.4220    10.2770 hc         1 BQE       0.073700
     37 H6         -23.9010    45.0600     9.1130 hc         1 BQE       0.073700
     38 H7         -23.7670    45.8130    10.6960 hc         1 BQE       0.073700
     39 H8         -25.0940    50.1280     8.8530 h4         1 BQE       0.022100
     40 H9         -26.2820    47.8900    12.1130 h4         1 BQE       0.032100
     41 H10        -26.1380    46.0080     8.2570 ha         1 BQE       0.126000
     42 H11        -34.2520    42.9590    14.6030 h1         1 BQE       0.061700
     43 H12        -34.5080    41.2500    14.9670 h1         1 BQE       0.061700
     44 H13        -34.1820    41.8630    10.1350 hc         1 BQE       0.051200
     45 H14        -33.8890    43.5250    10.6220 hc         1 BQE       0.051200
     46 H15        -32.8700    40.9390     8.0590 hc         1 BQE       0.054700
     47 H16        -31.3370    41.5700     8.6350 hc         1 BQE       0.054700
     48 H17        -31.2080    44.1300     9.3100 hc         1 BQE       0.054700
     49 H18        -32.6640    45.0940     9.1560 hc         1 BQE       0.054700
     50 H19        -34.4420    41.7070    12.5100 h1         1 BQE       0.035200
     51 H20        -33.1890    40.5670    13.0220 h1         1 BQE       0.035200
     52 H21        -31.3670    42.7320    10.8110 h1         1 BQE       0.035200
     53 H22        -32.0620    41.1330    10.9740 h1         1 BQE       0.035200
     54 H23        -31.2410    41.3870     6.1760 hc         1 BQE       0.065700
     55 H24        -32.7280    42.3300     6.0200 hc         1 BQE       0.065700
     56 H25        -32.5980    44.8890     6.6960 hc         1 BQE       0.065700
     57 H26        -31.0330    45.4840     7.2610 hc         1 BQE       0.065700
     58 H27        -33.8760    43.1920     8.1760 hc         1 BQE       0.045700
     59 H28        -25.6280    47.5230     6.3930 hn         1 BQE       0.461500
     60 H29        -25.2190    49.1380     6.6420 hn         1 BQE       0.461500
     61 H30        -32.2340    41.0220    15.4470 hn         1 BQE       0.400000
     62 H1         -26.6030    42.4380    11.7460 hn         1 BQE       0.549000
     63 NAB        -25.2250    48.2030     7.0210 nv         1 BQE      -1.079000
     64 CAA        -23.7150    44.8610    10.1690 c3         1 BQE      -0.181100
@<TRIPOS>BOND
     1     1     2 1   
     2     1    13 1   
     3     1    14 1   
     4     2     3 1   
     5     2     5 1   
     6     2    33 1   
     7     3     4 2   
     8     3    30 1   
     9     5    29 1   
    10     5    34 1   
    11     5    35 1   
    12     6    18 ar  
    13     6    27 ar  
    14     6    39 1   
    15     7    19 ar  
    16     7    27 ar  
    17     7    40 1   
    18     8    18 ar  
    19     8    19 ar  
    20     8    41 1   
    21     9    13 1   
    22     9    29 1   
    23     9    42 1   
    24     9    43 1   
    25    10    14 1   
    26    10    23 1   
    27    10    44 1   
    28    10    45 1   
    29    11    15 1   
    30    11    23 1   
    31    11    46 1   
    32    11    47 1   
    33    12    16 1   
    34    12    23 1   
    35    12    48 1   
    36    12    49 1   
    37    13    50 1   
    38    13    51 1   
    39    14    52 1   
    40    14    53 1   
    41    15    24 1   
    42    15    54 1   
    43    15    55 1   
    44    16    24 1   
    45    16    56 1   
    46    16    57 1   
    47    17    21 1   
    48    17    31 2   
    49    17    64 1   
    50    18    63 1   
    51    19    22 1   
    52    20    28 1   
    53    20    30 2   
    54    20    32 1   
    55    21    22 2   
    56    21    28 1   
    57    22    32 1   
    58    23    58 1   
    59    24    25 1   
    60    24    26 1   
    61    28    62 1   
    62    29    61 1   
    63    36    64 1   
    64    37    64 1   
    65    38    64 1   
    66    59    63 1   
    67    60    63 1   
@<TRIPOS>SUBSTRUCTURE
     1 BQE         1 TEMP              0 ****  ****    0 ROOT
