@<TRIPOS>MOLECULE
BQF
   40    43     1     0     0
SMALL
No Charge or Current Charge


@<TRIPOS>ATOM
      1 C16         -6.0950    -1.1030     0.2450 c          1 BQF       0.711600
      2 C18          3.9080     0.0210     0.2510 ca         1 BQF      -0.133800
      3 C20          6.1600     0.2400     1.1950 ca         1 BQF      -0.143000
      4 C21          6.3630    -1.1420     1.0650 ca         1 BQF      -0.074000
      5 C22          5.3410    -1.9450     0.5370 ca         1 BQF      -0.131000
      6 C15         -4.3430     0.4060     1.3310 ca         1 BQF      -0.097000
      7 C13         -2.3580     1.1730     0.1180 ca         1 BQF      -0.189600
      8 C12         -2.8230     0.4810    -1.0240 ca         1 BQF      -0.103500
      9 C11         -4.0210    -0.2530    -0.9810 ca         1 BQF      -0.097000
     10 C9          -1.0810     1.9920     0.0970 c          1 BQF       0.627700
     11 C3           2.6390     0.6260    -0.1750 cc         1 BQF       0.025600
     12 C4           2.3310     2.1090    -0.1300 c6         1 BQF      -0.072200
     13 C2           1.6700    -0.2720    -0.6130 cd         1 BQF      -0.236400
     14 C1          -4.7980    -0.3070     0.1990 ca         1 BQF      -0.108600
     15 C6           0.2650     0.1530    -1.0320 c6         1 BQF       0.155200
     16 C5           1.1310     2.4680    -1.0230 c6         1 BQF       0.091000
     17 O4          -6.7380    -1.1170     1.2860 o          1 BQF      -0.714500
     18 O3          -6.4520    -1.7010    -0.7610 o          1 BQF      -0.714500
     19 C14         -3.1460     1.1410     1.2870 ca         1 BQF      -0.103500
     20 O2          -1.0080     3.0370     0.7340 o          1 BQF      -0.613100
     21 N1          -0.0160     1.5820    -0.7380 n          1 BQF      -0.407800
     22 C7           1.9140    -1.7380    -0.7220 c          1 BQF       0.672300
     23 O1           1.0680    -2.5210    -1.1300 o          1 BQF      -0.477000
     24 O5           3.1490    -2.1810    -0.3540 os         1 BQF      -0.333200
     25 C17          4.1250    -1.3660     0.1380 ca         1 BQF       0.166100
     26 C19          4.9430     0.8180     0.7930 ca         1 BQF      -0.058000
     27 H3           5.4860    -3.0170     0.4400 ha         1 BQF       0.136000
     28 H4          -4.9200     0.3960     2.2540 ha         1 BQF       0.132000
     29 H5          -2.2710     0.5250    -1.9590 ha         1 BQF       0.096000
     30 H6          -4.3490    -0.7760    -1.8770 ha         1 BQF       0.132000
     31 H7           2.1170     2.4160     0.9030 hc         1 BQF       0.064700
     32 H8           3.1920     2.7030    -0.4600 hc         1 BQF       0.064700
     33 H9           0.1280    -0.0220    -2.1100 h1         1 BQF       0.085200
     34 H10         -0.4620    -0.4840    -0.5080 h1         1 BQF       0.085200
     35 H11          0.8560     3.5230    -0.8810 h1         1 BQF       0.059700
     36 H12          1.4160     2.3490    -2.0780 h1         1 BQF       0.059700
     37 H14         -2.8240     1.6810     2.1750 ha         1 BQF       0.096000
     38 H15          4.8170     1.8910     0.9140 ha         1 BQF       0.119000
     39 H1           6.9470     0.8660     1.6080 ha         1 BQF       0.115000
     40 H2           7.3050    -1.5900     1.3760 ha         1 BQF       0.115000
@<TRIPOS>BOND
     1     1    14 1   
     2     1    17 1   
     3     1    18 1   
     4     2    11 1   
     5     2    25 ar  
     6     2    26 ar  
     7     3     4 ar  
     8     3    26 ar  
     9     3    39 1   
    10     4     5 ar  
    11     4    40 1   
    12     5    25 ar  
    13     5    27 1   
    14     6    14 ar  
    15     6    19 ar  
    16     6    28 1   
    17     7     8 ar  
    18     7    10 1   
    19     7    19 ar  
    20     8     9 ar  
    21     8    29 1   
    22     9    14 ar  
    23     9    30 1   
    24    10    20 2   
    25    10    21 1   
    26    11    12 1   
    27    11    13 2   
    28    12    16 1   
    29    12    31 1   
    30    12    32 1   
    31    13    15 1   
    32    13    22 1   
    33    15    21 1   
    34    15    33 1   
    35    15    34 1   
    36    16    21 1   
    37    16    35 1   
    38    16    36 1   
    39    19    37 1   
    40    22    23 2   
    41    22    24 1   
    42    24    25 1   
    43    26    38 1   
@<TRIPOS>SUBSTRUCTURE
     1 BQF         1 TEMP              0 ****  ****    0 ROOT
