@<TRIPOS>MOLECULE
BQF
   40    43     1     0     0
SMALL
bcc


@<TRIPOS>ATOM
      1 C16         -5.8750    -1.1300     0.4350 c          1 BQF       0.922200
      2 C18          3.7520     0.0600     0.3020 ca         1 BQF      -0.133800
      3 C20          5.9080     0.2480     1.3780 ca         1 BQF      -0.161000
      4 C21          6.0820    -1.1320     1.2780 ca         1 BQF      -0.092000
      5 C22          5.1050    -1.9220     0.7000 ca         1 BQF      -0.149000
      6 C15         -3.9260     0.1640     1.4190 ca         1 BQF      -0.115000
      7 C13         -2.2050     1.1310     0.0400 ca         1 BQF      -0.189600
      8 C12         -2.8560     0.6390    -1.0890 ca         1 BQF      -0.121500
      9 C11         -4.0350    -0.0760    -0.9590 ca         1 BQF      -0.115000
     10 C9          -0.9970     2.0010    -0.0750 c          1 BQF       0.694700
     11 C3           2.5190     0.6040    -0.2250 cc         1 BQF       0.025600
     12 C4           2.2850     2.0830    -0.2140 c6         1 BQF      -0.072200
     13 C2           1.5910    -0.2370    -0.7340 cd         1 BQF      -0.236400
     14 C1          -4.5840    -0.3310     0.2950 ca         1 BQF      -0.108600
     15 C6           0.2500     0.2110    -1.2520 c6         1 BQF       0.155200
     16 C5           1.1370     2.4550    -1.1360 c6         1 BQF       0.091000
     17 O4          -6.3060    -1.2900     1.5920 o          1 BQF      -0.819800
     18 O3          -6.3830    -1.5530    -0.6210 o          1 BQF      -0.819800
     19 C14         -2.7580     0.8990     1.2960 ca         1 BQF      -0.121500
     20 O2          -0.9560     3.0680     0.5190 o          1 BQF      -0.613100
     21 N1          -0.0010     1.5910    -0.8990 n          1 BQF      -0.474800
     22 C7           1.8430    -1.6640    -0.8190 c          1 BQF       0.747800
     23 O1           1.0820    -2.4710    -1.2960 o          1 BQF      -0.552500
     24 O5           3.0170    -2.1230    -0.3340 os         1 BQF      -0.333200
     25 C17          3.9510    -1.3170     0.2220 ca         1 BQF       0.166100
     26 C19          4.7560     0.8360     0.8940 ca         1 BQF      -0.076000
     27 H3           5.2290    -2.9940     0.6170 ha         1 BQF       0.154000
     28 H4          -4.3390    -0.0240     2.4000 ha         1 BQF       0.150000
     29 H5          -2.4530     0.8300    -2.0770 ha         1 BQF       0.114000
     30 H6          -4.5380    -0.4420    -1.8450 ha         1 BQF       0.150000
     31 H7           2.0810     2.4140     0.8080 hc         1 BQF       0.064700
     32 H8           3.1880     2.6050    -0.5350 hc         1 BQF       0.064700
     33 H9           0.2070     0.0800    -2.3380 h1         1 BQF       0.085200
     34 H10         -0.5230    -0.4300    -0.8310 h1         1 BQF       0.085200
     35 H11          0.8520     3.4940    -1.0000 h1         1 BQF       0.059700
     36 H12          1.4410     2.3300    -2.1790 h1         1 BQF       0.059700
     37 H14         -2.2670     1.2820     2.1820 ha         1 BQF       0.114000
     38 H15          4.6300     1.9070     0.9790 ha         1 BQF       0.137000
     39 H1           6.6750     0.8580     1.8340 ha         1 BQF       0.133000
     40 H2           6.9840    -1.5930     1.6550 ha         1 BQF       0.133000
@<TRIPOS>BOND
     1     1    14 1   
     2     1    17 1   
     3     1    18 1   
     4     2    11 1   
     5     2    25 ar  
     6     2    26 ar  
     7     3     4 ar  
     8     3    26 ar  
     9     3    39 1   
    10     4     5 ar  
    11     4    40 1   
    12     5    25 ar  
    13     5    27 1   
    14     6    14 ar  
    15     6    19 ar  
    16     6    28 1   
    17     7     8 ar  
    18     7    10 1   
    19     7    19 ar  
    20     8     9 ar  
    21     8    29 1   
    22     9    14 ar  
    23     9    30 1   
    24    10    20 2   
    25    10    21 1   
    26    11    12 1   
    27    11    13 2   
    28    12    16 1   
    29    12    31 1   
    30    12    32 1   
    31    13    15 1   
    32    13    22 1   
    33    15    21 1   
    34    15    33 1   
    35    15    34 1   
    36    16    21 1   
    37    16    35 1   
    38    16    36 1   
    39    19    37 1   
    40    22    23 2   
    41    22    24 1   
    42    24    25 1   
    43    26    38 1   
@<TRIPOS>SUBSTRUCTURE
     1 BQF         1 TEMP              0 ****  ****    0 ROOT
