@<TRIPOS>MOLECULE
BQH
   31    32     1     0     0
SMALL
bcc


@<TRIPOS>ATOM
      1 N            3.6790     0.8780    -0.5990 n7         1 BQH      -0.797200
      2 CA           2.6310    -0.1050    -0.4620 c6         1 BQH       0.104500
      3 C            1.3000     0.5830    -0.2420 c          1 BQH       0.666100
      4 O            1.1640     1.7630     0.0090 o          1 BQH      -0.548100
      5 CB           2.9530    -1.0070     0.7370 c6         1 BQH       0.162800
      6 CAA         -4.4390    -2.2780    -0.2520 c3         1 BQH      -0.182100
      7 CAD         -3.1560     1.2810     0.2880 cc         1 BQH      -0.188400
      8 CAE          5.2920    -0.6380     0.3910 c6         1 BQH       0.153800
      9 CAF          4.9790     0.2550    -0.7930 c6         1 BQH       0.161800
     10 CAO         -3.2490    -0.0510     0.0310 cd         1 BQH       0.281800
     11 CAP         -1.0770     0.1450    -0.1350 cc         1 BQH       0.532300
     12 NAH         -2.0610    -0.6860    -0.2090 nd         1 BQH      -0.693000
     13 NAI          4.2390    -1.6310     0.5130 n7         1 BQH      -0.814200
     14 NAK          0.2210    -0.2450    -0.3390 ns         1 BQH      -0.544400
     15 OAB         -5.5740    -0.2280     0.2020 o          1 BQH      -0.524100
     16 SAL         -1.5200     1.7840     0.2360 ss         1 BQH      -0.063300
     17 H1           3.4800     1.4990    -1.3730 hn         1 BQH       0.373800
     18 H3           2.5320    -0.7590    -1.3470 h1         1 BQH       0.048700
     19 H4           2.9210    -0.3920     1.6500 h1         1 BQH       0.045700
     20 H5           2.1960    -1.7870     0.8390 h1         1 BQH       0.045700
     21 H6          -3.7880    -2.7600     0.4790 hc         1 BQH       0.064700
     22 H7          -5.4260    -2.7320    -0.2110 hc         1 BQH       0.064700
     23 H8          -3.9970    -2.4650    -1.2320 hc         1 BQH       0.064700
     24 H9          -3.9510     1.9770     0.5060 h4         1 BQH       0.194000
     25 H10          6.2450    -1.1430     0.2310 h1         1 BQH       0.043700
     26 H11          5.3930    -0.0140     1.2930 h1         1 BQH       0.043700
     27 H12          5.0270    -0.3460    -1.7140 h1         1 BQH       0.042700
     28 H13          5.7320     1.0410    -0.8750 h1         1 BQH       0.042700
     29 H14          4.4410    -2.2660     1.2730 hn         1 BQH       0.365800
     30 H16          0.3510    -1.2180    -0.5820 hn         1 BQH       0.342500
     31 CAM         -4.5240    -0.8040     0.0100 c          1 BQH       0.506600
@<TRIPOS>BOND
     1     1     2 1   
     2     1     9 1   
     3     1    17 1   
     4     2     3 1   
     5     2     5 1   
     6     2    18 1   
     7     3     4 2   
     8     3    14 1   
     9     5    13 1   
    10     5    19 1   
    11     5    20 1   
    12     6    21 1   
    13     6    22 1   
    14     6    23 1   
    15     6    31 1   
    16     7    10 2   
    17     7    16 1   
    18     7    24 1   
    19     8     9 1   
    20     8    13 1   
    21     8    25 1   
    22     8    26 1   
    23     9    27 1   
    24     9    28 1   
    25    10    12 1   
    26    10    31 1   
    27    11    12 2   
    28    11    14 1   
    29    11    16 1   
    30    13    29 1   
    31    14    30 1   
    32    15    31 2   
@<TRIPOS>SUBSTRUCTURE
     1 BQH         1 TEMP              0 ****  ****    0 ROOT
