@<TRIPOS>MOLECULE
BQH
   31    32     1     0     0
SMALL
No Charge or Current Charge


@<TRIPOS>ATOM
      1 N            3.7220     1.0240     0.1360 n7         1 BQH      -0.852400
      2 CA           2.7550     0.2390    -0.7280 c6         1 BQH       0.104500
      3 C            1.3180     0.8830    -0.7660 c          1 BQH       0.599100
      4 O            1.1720     2.0560    -1.0860 o          1 BQH      -0.548100
      5 CB           2.7720    -1.2870    -0.3500 c6         1 BQH       0.162800
      6 CAA         -4.2620    -2.3550     0.7730 c3         1 BQH      -0.182100
      7 CAD         -3.3560     1.2290    -0.3810 cc         1 BQH      -0.250000
      8 CAE          5.0950    -1.0830     0.4690 c6         1 BQH       0.153800
      9 CAF          5.0940     0.4390     0.1110 c6         1 BQH       0.161800
     10 CAO         -3.2320    -0.0950    -0.0030 cd         1 BQH       0.216500
     11 CAP         -1.0830     0.4030    -0.3760 cc         1 BQH       0.532300
     12 NAH         -1.9090    -0.5560    -0.0060 nd         1 BQH      -0.693000
     13 NAI          4.1470    -1.8660    -0.3780 n7         1 BQH      -0.869400
     14 NAK          0.2480     0.0840    -0.4230 ns         1 BQH      -0.477400
     15 OAB         -5.5930    -0.4170     0.3400 o          1 BQH      -0.524100
     16 SAL         -1.8170     1.9460    -0.7560 ss         1 BQH       0.081600
     17 H1           3.7620     1.9960    -0.2020 hn         1 BQH       0.429000
     18 H3           3.1060     0.3050    -1.7680 h1         1 BQH       0.048700
     19 H4           2.3540    -1.4130     0.6610 h1         1 BQH       0.045700
     20 H5           2.1350    -1.8490    -1.0490 h1         1 BQH       0.045700
     21 H6          -3.5480    -2.3950     1.6030 hc         1 BQH       0.064700
     22 H7          -5.2030    -2.8590     1.0210 hc         1 BQH       0.064700
     23 H8          -3.7190    -2.8760    -0.0230 hc         1 BQH       0.064700
     24 H9          -4.2560     1.8240    -0.4630 h4         1 BQH       0.176000
     25 H10          6.1130    -1.4850     0.3540 h1         1 BQH       0.043700
     26 H11          4.8140    -1.1980     1.5270 h1         1 BQH       0.043700
     27 H12          5.5230     0.5680    -0.8940 h1         1 BQH       0.042700
     28 H13          5.7400     0.9820     0.8160 h1         1 BQH       0.042700
     29 H14          4.1140    -2.8370    -0.0380 hn         1 BQH       0.421000
     30 H16          0.4680    -0.8640    -0.1610 hn         1 BQH       0.342500
     31 CAM         -4.4600    -0.8930     0.3620 c          1 BQH       0.506600
@<TRIPOS>BOND
     1     1     2 1   
     2     1     9 1   
     3     1    17 1   
     4     2     3 1   
     5     2     5 1   
     6     2    18 1   
     7     3     4 2   
     8     3    14 1   
     9     5    13 1   
    10     5    19 1   
    11     5    20 1   
    12     6    21 1   
    13     6    22 1   
    14     6    23 1   
    15     6    31 1   
    16     7    10 2   
    17     7    16 1   
    18     7    24 1   
    19     8     9 1   
    20     8    13 1   
    21     8    25 1   
    22     8    26 1   
    23     9    27 1   
    24     9    28 1   
    25    10    12 1   
    26    10    31 1   
    27    11    12 2   
    28    11    14 1   
    29    11    16 1   
    30    13    29 1   
    31    14    30 1   
    32    15    31 2   
@<TRIPOS>SUBSTRUCTURE
     1 BQH         1 TEMP              0 ****  ****    0 ROOT
