@<TRIPOS>MOLECULE
BQI
   31    33     1     0     0
SMALL
No Charge or Current Charge


@<TRIPOS>ATOM
      1 C01        191.5510   210.1970   183.6200 c3         1 BQI      -0.155400
      2 C02        192.2970   208.8780   183.6780 ca         1 BQI       0.174300
      3 C04        194.0430   207.6500   184.5140 ca         1 BQI       0.385900
      4 C06        192.6400   206.5850   183.0490 ca         1 BQI       0.155900
      5 C07        191.8820   207.7610   182.9330 ca         1 BQI      -0.271000
      6 C09        196.0820   206.7130   185.6830 cc         1 BQI       0.679300
      7 C11        197.8740   206.0950   186.7890 cd         1 BQI       0.415500
      8 C12        197.6160   204.8960   186.1350 cc         1 BQI      -0.265300
      9 C14        198.3320   203.5690   186.1620 c3         1 BQI      -0.006800
     10 C15        198.9840   206.2830   187.6950 cd         1 BQI      -0.242500
     11 C16        199.2100   207.4770   188.3240 cc         1 BQI      -0.132000
     12 C19        199.9910   205.3790   188.1020 cd         1 BQI       0.256900
     13 N03        193.3850   208.8220   184.4710 nb         1 BQI      -0.233000
     14 N05        193.7260   206.5270   183.8430 nb         1 BQI      -0.242000
     15 N08        195.1520   207.6360   185.3400 nu         1 BQI      -0.877800
     16 N10        196.9900   207.1310   186.5250 nd         1 BQI      -0.725000
     17 N17        200.3510   207.2280   189.0830 na         1 BQI      -0.005200
     18 N18        200.8380   205.9340   188.9510 nc         1 BQI      -0.530800
     19 S13        196.1970   205.0590   185.1330 ss         1 BQI       0.039600
     20 H1         191.4880   210.6630   184.6110 hc         1 BQI       0.059700
     21 H2         192.0560   210.9000   182.9480 hc         1 BQI       0.059700
     22 H3         190.5260   210.0600   183.2540 hc         1 BQI       0.059700
     23 H4         192.3770   205.6810   182.5010 h4         1 BQI       0.027100
     24 H5         191.0080   207.8010   182.2890 ha         1 BQI       0.137000
     25 H6         197.8370   202.8390   185.5100 hc         1 BQI       0.044367
     26 H7         199.3650   203.6690   185.8080 hc         1 BQI       0.044367
     27 H8         198.3410   203.1440   187.1730 hc         1 BQI       0.044367
     28 H9         198.6910   208.4290   188.3010 h4         1 BQI       0.166000
     29 H10        200.1510   204.3470   187.8260 h4         1 BQI       0.037100
     30 H11        195.3410   208.5090   185.8180 hn         1 BQI       0.529000
     31 H12        200.8140   207.9040   189.6910 hn         1 BQI       0.371000
@<TRIPOS>BOND
     1     1     2 1   
     2     1    20 1   
     3     1    21 1   
     4     1    22 1   
     5     2     5 ar  
     6     2    13 ar  
     7     3    13 ar  
     8     3    14 ar  
     9     3    15 1   
    10     4     5 ar  
    11     4    14 ar  
    12     4    23 1   
    13     5    24 1   
    14     6    15 1   
    15     6    16 2   
    16     6    19 1   
    17     7     8 2   
    18     7    10 1   
    19     7    16 1   
    20     8     9 1   
    21     8    19 1   
    22     9    25 1   
    23     9    26 1   
    24     9    27 1   
    25    10    11 2   
    26    10    12 1   
    27    11    17 1   
    28    11    28 1   
    29    12    18 2   
    30    12    29 1   
    31    15    30 1   
    32    17    18 1   
    33    17    31 1   
@<TRIPOS>SUBSTRUCTURE
     1 BQI         1 TEMP              0 ****  ****    0 ROOT
