@<TRIPOS>MOLECULE
BQI
   31    33     1     0     0
SMALL
bcc


@<TRIPOS>ATOM
      1 C01        191.4480   210.0320   183.5200 c3         1 BQI      -0.155400
      2 C02        192.3090   208.8210   183.6780 ca         1 BQI       0.502600
      3 C04        194.0770   207.7920   184.6500 ca         1 BQI       0.911900
      4 C06        192.9020   206.5930   183.1540 ca         1 BQI       0.484200
      5 C07        192.0570   207.6600   182.9420 ca         1 BQI      -0.419600
      6 C09        196.0550   206.9370   185.8200 cc         1 BQI       0.679300
      7 C11        197.8370   206.0970   186.8100 cd         1 BQI       0.480800
      8 C12        197.5080   205.0040   186.0670 cc         1 BQI      -0.185700
      9 C14        198.1840   203.6780   185.9590 c3         1 BQI      -0.006800
     10 C15        198.9640   206.2330   187.7190 cd         1 BQI      -0.307800
     11 C16        199.3980   207.4150   188.2910 cc         1 BQI      -0.099300
     12 C19        199.8540   205.2660   188.2370 cd         1 BQI       0.322200
     13 N03        193.3200   208.8820   184.5310 nb         1 BQI      -0.759000
     14 N05        193.9190   206.6460   184.0090 nb         1 BQI      -0.768000
     15 N08        195.1160   207.8880   185.5300 nu         1 BQI      -0.822600
     16 N10        197.0080   207.1830   186.6580 nd         1 BQI      -0.725000
     17 N17        200.4500   207.1030   189.0580 na         1 BQI      -0.005600
     18 N18        200.7450   205.8090   189.0440 nc         1 BQI      -0.530800
     19 S13        196.0840   205.3460   185.1370 ss         1 BQI      -0.105300
     20 H1         191.7490   210.8200   184.2060 hc         1 BQI       0.059700
     21 H2         191.5120   210.4130   182.5000 hc         1 BQI       0.059700
     22 H3         190.4020   209.7850   183.7030 hc         1 BQI       0.059700
     23 H4         192.7660   205.6580   182.6230 h4         1 BQI       0.027100
     24 H5         191.2350   207.5990   182.2440 ha         1 BQI       0.155000
     25 H6         197.7980   203.0990   185.1220 hc         1 BQI       0.044367
     26 H7         199.2570   203.7970   185.8020 hc         1 BQI       0.044367
     27 H8         198.0470   203.0770   186.8600 hc         1 BQI       0.044367
     28 H9         199.0340   208.4250   188.1990 h4         1 BQI       0.184000
     29 H10        199.8700   204.2020   188.0630 h4         1 BQI       0.037100
     30 H11        195.2260   208.7700   186.0100 hn         1 BQI       0.473800
     31 H12        201.0020   207.7380   189.6130 hn         1 BQI       0.320700
@<TRIPOS>BOND
     1     1     2 1   
     2     1    20 1   
     3     1    21 1   
     4     1    22 1   
     5     2     5 ar  
     6     2    13 ar  
     7     3    13 ar  
     8     3    14 ar  
     9     3    15 1   
    10     4     5 ar  
    11     4    14 ar  
    12     4    23 1   
    13     5    24 1   
    14     6    15 1   
    15     6    16 2   
    16     6    19 1   
    17     7     8 2   
    18     7    10 1   
    19     7    16 1   
    20     8     9 1   
    21     8    19 1   
    22     9    25 1   
    23     9    26 1   
    24     9    27 1   
    25    10    11 2   
    26    10    12 1   
    27    11    17 1   
    28    11    28 1   
    29    12    18 2   
    30    12    29 1   
    31    15    30 1   
    32    17    18 1   
    33    17    31 1   
@<TRIPOS>SUBSTRUCTURE
     1 BQI         1 TEMP              0 ****  ****    0 ROOT
