@<TRIPOS>MOLECULE
BQJ
   95    99     1     0     0
SMALL
No Charge or Current Charge


@<TRIPOS>ATOM
      1 N1          -7.9230    -0.5600     1.9940 n3         1 BQJ      -0.728600
      2 C2          -9.1510    -0.2750     2.7900 c6         1 BQJ       0.170300
      3 C4          -9.4800    -2.7610     3.2450 c6         1 BQJ      -0.075400
      4 C5          -8.1850    -3.0250     2.4430 c6         1 BQJ      -0.075400
      5 C6          -7.2420    -1.7970     2.4830 c6         1 BQJ       0.170300
      6 C64         -2.0590    -6.7740    -1.9030 c3         1 BQJ      -0.090100
      7 C62         -1.7670    -5.3020    -2.2520 c3         1 BQJ      -0.097400
      8 N45         -1.0290    -3.0650    -1.3650 na         1 BQJ       0.155800
      9 N44         -2.0010    -2.0940    -1.2100 nc         1 BQJ      -0.515800
     10 C42         -1.3910    -0.9820    -1.5990 cd         1 BQJ       0.311500
     11 C47         -0.0480    -1.2280    -1.9780 cd         1 BQJ      -0.197300
     12 C51          1.0150    -0.2400    -2.4110 c6         1 BQJ       0.178300
     13 N54          2.3700    -0.8690    -2.3680 n          1 BQJ      -0.419800
     14 C53          2.4100    -2.2760    -2.8850 c6         1 BQJ       0.107000
     15 C54          1.4970    -3.2330    -2.0760 c6         1 BQJ      -0.030100
     16 C46          0.1760    -2.5580    -1.8330 cc         1 BQJ      -0.148300
     17 C68          3.5210    -0.0600    -2.2370 c          1 BQJ       0.610100
     18 O72          3.4170     1.1600    -2.2130 o          1 BQJ      -0.601100
     19 C72          4.8970    -0.7440    -2.0810 c3         1 BQJ      -0.152400
     20 C75          6.0740     0.1300    -1.5490 c6         1 BQJ      -0.045700
     21 C76          7.4350    -0.6010    -1.7160 c6         1 BQJ      -0.101400
     22 C77          8.5980     0.2470    -1.1490 c6         1 BQJ       0.097000
     23 N80          8.3470     0.6020     0.2740 n          1 BQJ      -0.413800
     24 C79          7.0770     1.3550     0.4630 c6         1 BQJ       0.097000
     25 C80          5.8740     0.5360    -0.0610 c6         1 BQJ      -0.101400
     26 C87          9.0940     0.0300     1.3370 c          1 BQJ       0.601100
     27 O87          9.9780    -0.7890     1.0970 o          1 BQJ      -0.583100
     28 C89          8.7810     0.4980     2.8010 c3         1 BQJ       0.088800
     29 N91          9.7240     0.1290     3.9120 n3         1 BQJ      -0.690600
     30 C95         11.0640     0.7460     3.7680 c3         1 BQJ       0.148100
     31 C93          9.1410     0.3710     5.2510 c3         1 BQJ       0.148100
     32 C24         -2.0840     0.3230    -1.5520 ca         1 BQJ      -0.065500
     33 C23         -1.8860     1.2890    -2.5560 ca         1 BQJ      -0.116000
     34 C22         -2.5740     2.5120    -2.5190 ca         1 BQJ      -0.054000
     35 C21         -3.4990     2.7980    -1.4890 ca         1 BQJ      -0.188300
     36 C26         -3.7330     1.8090    -0.4990 ca         1 BQJ      -0.045000
     37 C25         -3.0300     0.5900    -0.5420 ca         1 BQJ      -0.112000
     38 S19         -4.9090     2.0820     0.8330 ss         1 BQJ      -0.152000
     39 C17         -5.8500     0.4940     0.9350 c3         1 BQJ       0.041600
     40 C15         -7.0260     0.6250     1.9270 c3         1 BQJ       0.180800
     41 C3         -10.1490    -1.4580     2.7540 c6         1 BQJ      -0.075400
     42 H2          -8.8850    -0.0630     3.8360 h1         1 BQJ       0.030950
     43 H3          -9.6580     0.6200     2.3990 h1         1 BQJ       0.030950
     44 H4         -10.1720    -3.6080     3.1380 hc         1 BQJ       0.039200
     45 H5          -9.2430    -2.6770     4.3150 hc         1 BQJ       0.039200
     46 H6          -7.6670    -3.9050     2.8450 hc         1 BQJ       0.045950
     47 H7          -8.4360    -3.2590     1.3990 hc         1 BQJ       0.045950
     48 H8          -6.3630    -2.0280     1.8660 h1         1 BQJ       0.030950
     49 H9          -6.8860    -1.6520     3.5130 h1         1 BQJ       0.030950
     50 H10         -1.1640    -7.2620    -1.4970 hc         1 BQJ       0.038367
     51 H11         -2.8610    -6.8450    -1.1580 hc         1 BQJ       0.038367
     52 H12         -2.3730    -7.3240    -2.7980 hc         1 BQJ       0.038367
     53 H13         -0.9870    -5.2630    -3.0220 hc         1 BQJ       0.055700
     54 H14         -2.6680    -4.8500    -2.6860 hc         1 BQJ       0.055700
     55 H15         -2.1070    -4.4910    -0.2650 h1         1 BQJ       0.066200
     56 H16         -0.4190    -4.9140    -0.5940 h1         1 BQJ       0.066200
     57 H17          0.8200     0.1050    -3.4360 h1         1 BQJ       0.068700
     58 H18          0.9860     0.6390    -1.7500 h1         1 BQJ       0.068700
     59 H19          2.0620    -2.2630    -3.9290 h1         1 BQJ       0.055700
     60 H20          3.4270    -2.6850    -2.9020 h1         1 BQJ       0.055700
     61 H21          1.3750    -4.1810    -2.6160 hc         1 BQJ       0.062200
     62 H22          1.9790    -3.4720    -1.1190 hc         1 BQJ       0.062200
     63 H23          4.7660    -1.6510    -1.4800 hc         1 BQJ       0.058700
     64 H24          5.1370    -1.1690    -3.0630 hc         1 BQJ       0.058700
     65 H25          6.1010     1.0410    -2.1650 hc         1 BQJ       0.069700
     66 H26          7.4060    -1.5700    -1.1980 hc         1 BQJ       0.051450
     67 H27          7.6220    -0.8160    -2.7760 hc         1 BQJ       0.051450
     68 H28          9.5430    -0.3020    -1.2610 h1         1 BQJ       0.056700
     69 H29          8.6950     1.1730    -1.7340 h1         1 BQJ       0.056700
     70 H30          6.9020     1.6150     1.5140 h1         1 BQJ       0.056700
     71 H31          7.1410     2.3020    -0.0920 h1         1 BQJ       0.056700
     72 H32          4.9550     1.1260     0.0560 hc         1 BQJ       0.051450
     73 H33          5.7490    -0.3630     0.5580 hc         1 BQJ       0.051450
     74 H34          8.6840     1.5910     2.7690 h1         1 BQJ       0.045700
     75 H35          7.7830     0.1000     3.0260 h1         1 BQJ       0.045700
     76 H37         10.9980     1.8410     3.8250 h1         1 BQJ       0.033367
     77 H38         11.7360     0.4010     4.5650 h1         1 BQJ       0.033367
     78 H39         11.5230     0.4810     2.8070 h1         1 BQJ       0.033367
     79 H40          8.1900    -0.1670     5.3640 h1         1 BQJ       0.033367
     80 H41          9.8210     0.0210     6.0400 h1         1 BQJ       0.033367
     81 H42          8.9520     1.4410     5.4080 h1         1 BQJ       0.033367
     82 H43         -1.2090     1.0940    -3.3810 ha         1 BQJ       0.124000
     83 H44         -2.3820     3.2330    -3.3120 ha         1 BQJ       0.132000
     84 H45         -3.1970    -0.1550     0.2310 ha         1 BQJ       0.138000
     85 H46         -6.2380     0.2470    -0.0610 h1         1 BQJ       0.074200
     86 H47         -5.1740    -0.3030     1.2600 h1         1 BQJ       0.074200
     87 H48         -7.6120     1.5020     1.6210 h1         1 BQJ       0.044700
     88 H49         -6.6190     0.8450     2.9230 h1         1 BQJ       0.044700
     89 H50        -11.0240    -1.2270     3.3760 hc         1 BQJ       0.045950
     90 H51        -10.5190    -1.5930     1.7280 hc         1 BQJ       0.045950
     91 C33         -4.2430     4.1480    -1.4710 c3         1 BQJ       0.359300
     92 C60         -1.3210    -4.4690    -1.0300 c3         1 BQJ       0.081600
     93 F44         -4.0030     4.8430    -0.3350 f          1 BQJ      -0.110000
     94 F45         -3.8880     4.9610    -2.4930 f          1 BQJ      -0.110000
     95 F46         -5.5830     3.9860    -1.5660 f          1 BQJ      -0.110000
@<TRIPOS>BOND
     1     1     2 1   
     2     1     5 1   
     3     1    40 1   
     4     2    41 1   
     5     2    42 1   
     6     2    43 1   
     7     3     4 1   
     8     3    41 1   
     9     3    44 1   
    10     3    45 1   
    11     4     5 1   
    12     4    46 1   
    13     4    47 1   
    14     5    48 1   
    15     5    49 1   
    16     6     7 1   
    17     6    50 1   
    18     6    51 1   
    19     6    52 1   
    20     7    53 1   
    21     7    54 1   
    22     7    92 1   
    23     8     9 1   
    24     8    16 1   
    25     8    92 1   
    26     9    10 2   
    27    10    11 1   
    28    10    32 1   
    29    11    12 1   
    30    11    16 2   
    31    12    13 1   
    32    12    57 1   
    33    12    58 1   
    34    13    14 1   
    35    13    17 1   
    36    14    15 1   
    37    14    59 1   
    38    14    60 1   
    39    15    16 1   
    40    15    61 1   
    41    15    62 1   
    42    17    18 2   
    43    17    19 1   
    44    19    20 1   
    45    19    63 1   
    46    19    64 1   
    47    20    21 1   
    48    20    25 1   
    49    20    65 1   
    50    21    22 1   
    51    21    66 1   
    52    21    67 1   
    53    22    23 1   
    54    22    68 1   
    55    22    69 1   
    56    23    24 1   
    57    23    26 1   
    58    24    25 1   
    59    24    70 1   
    60    24    71 1   
    61    25    72 1   
    62    25    73 1   
    63    26    27 2   
    64    26    28 1   
    65    28    29 1   
    66    28    74 1   
    67    28    75 1   
    68    29    30 1   
    69    29    31 1   
    70    30    76 1   
    71    30    77 1   
    72    30    78 1   
    73    31    79 1   
    74    31    80 1   
    75    31    81 1   
    76    32    33 ar  
    77    32    37 ar  
    78    33    34 ar  
    79    33    82 1   
    80    34    35 ar  
    81    34    83 1   
    82    35    36 ar  
    83    35    91 1   
    84    36    37 ar  
    85    36    38 1   
    86    37    84 1   
    87    38    39 1   
    88    39    40 1   
    89    39    85 1   
    90    39    86 1   
    91    40    87 1   
    92    40    88 1   
    93    41    89 1   
    94    41    90 1   
    95    55    92 1   
    96    56    92 1   
    97    91    93 1   
    98    91    94 1   
    99    91    95 1   
@<TRIPOS>SUBSTRUCTURE
     1 BQJ         1 TEMP              0 ****  ****    0 ROOT
