@<TRIPOS>MOLECULE
BQJ
   95    99     1     0     0
SMALL
abcg2


@<TRIPOS>ATOM
      1 N1          -7.8380    -1.2150     1.2880 n3         1 BQJ      -0.728600
      2 C2          -9.2270    -1.5370     0.9970 c6         1 BQJ       0.170300
      3 C4          -9.1290    -3.4560     2.6060 c6         1 BQJ      -0.075400
      4 C5          -7.6950    -3.0510     2.9170 c6         1 BQJ      -0.075400
      5 C6          -7.4860    -1.5670     2.6550 c6         1 BQJ       0.170300
      6 C64         -1.9890    -5.7950    -0.0490 c3         1 BQJ      -0.090100
      7 C62         -1.7470    -4.4360    -0.6880 c3         1 BQJ      -0.097400
      8 N45         -0.7380    -2.2080    -0.3290 na         1 BQJ       0.155800
      9 N44         -1.6840    -1.2880    -0.2510 nc         1 BQJ      -0.515800
     10 C42         -1.2380    -0.2330    -0.9220 cd         1 BQJ       0.311500
     11 C47          0.0460    -0.5000    -1.4490 cd         1 BQJ      -0.197300
     12 C51          1.0210     0.3080    -2.2480 c6         1 BQJ       0.178300
     13 N54          2.2860    -0.4070    -2.3230 n          1 BQJ      -0.419800
     14 C53          2.1710    -1.8300    -2.5920 c6         1 BQJ       0.107000
     15 C54          1.5380    -2.5580    -1.4090 c6         1 BQJ      -0.030100
     16 C46          0.3180    -1.7890    -1.0520 cc         1 BQJ      -0.148300
     17 C68          3.4540     0.2560    -2.1440 c          1 BQJ       0.610100
     18 O72          3.4860     1.4710    -2.0060 o          1 BQJ      -0.601100
     19 C72          4.7230    -0.5770    -2.1360 c3         1 BQJ      -0.152400
     20 C75          5.9860     0.1830    -1.7460 c6         1 BQJ      -0.045700
     21 C76          7.2070    -0.6890    -2.0460 c6         1 BQJ      -0.101400
     22 C77          8.5000    -0.0470    -1.5610 c6         1 BQJ       0.097000
     23 N80          8.4150     0.2790    -0.1480 n          1 BQJ      -0.413800
     24 C79          7.3240     1.1920     0.1450 c6         1 BQJ       0.097000
     25 C80          5.9880     0.5900    -0.2720 c6         1 BQJ      -0.101400
     26 C87          9.0870    -0.4470     0.7730 c          1 BQJ       0.601100
     27 O87          9.8420    -1.3580     0.4650 o          1 BQJ      -0.583100
     28 C89          8.8660    -0.0610     2.2340 c3         1 BQJ       0.088800
     29 N91          9.7240    -0.7820     3.1390 n3         1 BQJ      -0.690600
     30 C95         11.0880    -0.2930     3.1050 c3         1 BQJ       0.148100
     31 C93          9.1970    -0.7390     4.4880 c3         1 BQJ       0.148100
     32 C24         -2.0760     0.9640    -1.0170 ca         1 BQJ      -0.065500
     33 C23         -1.6920     2.0840    -1.7500 ca         1 BQJ      -0.116000
     34 C22         -2.5170     3.1950    -1.8090 ca         1 BQJ      -0.054000
     35 C21         -3.7440     3.2160    -1.1630 ca         1 BQJ      -0.188300
     36 C26         -4.1550     2.0890    -0.4300 ca         1 BQJ      -0.045000
     37 C25         -3.3070     0.9930    -0.3580 ca         1 BQJ      -0.112000
     38 S19         -5.7190     2.0900     0.3860 ss         1 BQJ      -0.152000
     39 C17         -6.0440     0.3250     0.6570 c3         1 BQJ       0.041600
     40 C15         -7.5260     0.1660     0.9810 c3         1 BQJ       0.180800
     41 C3          -9.4980    -3.0210     1.1940 c6         1 BQJ      -0.075400
     42 H2          -9.9200    -0.9560     1.6310 h1         1 BQJ       0.030950
     43 H3          -9.4370    -1.2580    -0.0380 h1         1 BQJ       0.030950
     44 H4          -9.2610    -4.5340     2.7260 hc         1 BQJ       0.039200
     45 H5          -9.8050    -2.9760     3.3230 hc         1 BQJ       0.039200
     46 H6          -7.4430    -3.2700     3.9560 hc         1 BQJ       0.045950
     47 H7          -7.0040    -3.6250     2.2920 hc         1 BQJ       0.045950
     48 H8          -6.4390    -1.3110     2.8330 h1         1 BQJ       0.030950
     49 H9          -8.0810    -0.9820     3.3790 h1         1 BQJ       0.030950
     50 H10         -1.0500    -6.2990     0.1840 hc         1 BQJ       0.038367
     51 H11         -2.5530    -5.7010     0.8810 hc         1 BQJ       0.038367
     52 H12         -2.5560    -6.4440    -0.7170 hc         1 BQJ       0.038367
     53 H13         -1.2050    -4.5590    -1.6300 hc         1 BQJ       0.055700
     54 H14         -2.6990    -3.9580    -0.9310 hc         1 BQJ       0.055700
     55 H15         -1.4740    -3.3910     1.1860 h1         1 BQJ       0.066200
     56 H16          0.0210    -3.9560     0.4630 h1         1 BQJ       0.066200
     57 H17          0.6410     0.5010    -3.2590 h1         1 BQJ       0.068700
     58 H18          1.2020     1.2770    -1.7870 h1         1 BQJ       0.068700
     59 H19          1.5390    -1.9610    -3.4740 h1         1 BQJ       0.055700
     60 H20          3.1360    -2.2590    -2.8380 h1         1 BQJ       0.055700
     61 H21          1.3020    -3.5840    -1.6970 hc         1 BQJ       0.062200
     62 H22          2.2380    -2.6080    -0.5700 hc         1 BQJ       0.062200
     63 H23          4.6050    -1.4330    -1.4640 hc         1 BQJ       0.058700
     64 H24          4.8570    -1.0020    -3.1370 hc         1 BQJ       0.058700
     65 H25          6.0570     1.0890    -2.3560 hc         1 BQJ       0.069700
     66 H26          7.0920    -1.6680    -1.5680 hc         1 BQJ       0.051450
     67 H27          7.2820    -0.8700    -3.1220 hc         1 BQJ       0.051450
     68 H28          9.3490    -0.7010    -1.7360 h1         1 BQJ       0.056700
     69 H29          8.6820     0.8830    -2.1090 h1         1 BQJ       0.056700
     70 H30          7.3050     1.4560     1.1990 h1         1 BQJ       0.056700
     71 H31          7.5030     2.1230    -0.4030 h1         1 BQJ       0.056700
     72 H32          5.1990     1.3170    -0.0730 hc         1 BQJ       0.051450
     73 H33          5.7810    -0.2880     0.3510 hc         1 BQJ       0.051450
     74 H34          8.9720     1.0300     2.3510 h1         1 BQJ       0.045700
     75 H35          7.8250    -0.2900     2.4840 h1         1 BQJ       0.045700
     76 H37         11.1710     0.7640     3.4050 h1         1 BQJ       0.033367
     77 H38         11.7070    -0.8800     3.7860 h1         1 BQJ       0.033367
     78 H39         11.5090    -0.3950     2.1070 h1         1 BQJ       0.033367
     79 H40          8.1980    -1.1770     4.5160 h1         1 BQJ       0.033367
     80 H41          9.8360    -1.3220     5.1520 h1         1 BQJ       0.033367
     81 H42          9.1290     0.2800     4.9010 h1         1 BQJ       0.033367
     82 H43         -0.7590     2.1120    -2.2910 ha         1 BQJ       0.124000
     83 H44         -2.1870     4.0480    -2.3840 ha         1 BQJ       0.132000
     84 H45         -3.5930     0.1300     0.2250 ha         1 BQJ       0.138000
     85 H46         -5.8030    -0.2320    -0.2480 h1         1 BQJ       0.074200
     86 H47         -5.4180    -0.0420     1.4700 h1         1 BQJ       0.074200
     87 H48         -8.1030     0.4710     0.1060 h1         1 BQJ       0.044700
     88 H49         -7.8170     0.8460     1.7990 h1         1 BQJ       0.044700
     89 H50        -10.5510    -3.2240     0.9870 hc         1 BQJ       0.045950
     90 H51         -8.9120    -3.5910     0.4670 hc         1 BQJ       0.045950
     91 C33         -4.6250     4.4200    -1.2840 c3         1 BQJ       0.359300
     92 C60         -0.9540    -3.5230     0.2370 c3         1 BQJ       0.081600
     93 F44         -5.0210     4.8720    -0.0830 f          1 BQJ      -0.110000
     94 F45         -4.0180     5.4390    -1.8960 f          1 BQJ      -0.110000
     95 F46         -5.7410     4.1610    -1.9810 f          1 BQJ      -0.110000
@<TRIPOS>BOND
     1     1     2 1   
     2     1     5 1   
     3     1    40 1   
     4     2    41 1   
     5     2    42 1   
     6     2    43 1   
     7     3     4 1   
     8     3    41 1   
     9     3    44 1   
    10     3    45 1   
    11     4     5 1   
    12     4    46 1   
    13     4    47 1   
    14     5    48 1   
    15     5    49 1   
    16     6     7 1   
    17     6    50 1   
    18     6    51 1   
    19     6    52 1   
    20     7    53 1   
    21     7    54 1   
    22     7    92 1   
    23     8     9 1   
    24     8    16 1   
    25     8    92 1   
    26     9    10 2   
    27    10    11 1   
    28    10    32 1   
    29    11    12 1   
    30    11    16 2   
    31    12    13 1   
    32    12    57 1   
    33    12    58 1   
    34    13    14 1   
    35    13    17 1   
    36    14    15 1   
    37    14    59 1   
    38    14    60 1   
    39    15    16 1   
    40    15    61 1   
    41    15    62 1   
    42    17    18 2   
    43    17    19 1   
    44    19    20 1   
    45    19    63 1   
    46    19    64 1   
    47    20    21 1   
    48    20    25 1   
    49    20    65 1   
    50    21    22 1   
    51    21    66 1   
    52    21    67 1   
    53    22    23 1   
    54    22    68 1   
    55    22    69 1   
    56    23    24 1   
    57    23    26 1   
    58    24    25 1   
    59    24    70 1   
    60    24    71 1   
    61    25    72 1   
    62    25    73 1   
    63    26    27 2   
    64    26    28 1   
    65    28    29 1   
    66    28    74 1   
    67    28    75 1   
    68    29    30 1   
    69    29    31 1   
    70    30    76 1   
    71    30    77 1   
    72    30    78 1   
    73    31    79 1   
    74    31    80 1   
    75    31    81 1   
    76    32    33 ar  
    77    32    37 ar  
    78    33    34 ar  
    79    33    82 1   
    80    34    35 ar  
    81    34    83 1   
    82    35    36 ar  
    83    35    91 1   
    84    36    37 ar  
    85    36    38 1   
    86    37    84 1   
    87    38    39 1   
    88    39    40 1   
    89    39    85 1   
    90    39    86 1   
    91    40    87 1   
    92    40    88 1   
    93    41    89 1   
    94    41    90 1   
    95    55    92 1   
    96    56    92 1   
    97    91    93 1   
    98    91    94 1   
    99    91    95 1   
@<TRIPOS>SUBSTRUCTURE
     1 BQJ         1 TEMP              0 ****  ****    0 ROOT
