@<TRIPOS>MOLECULE
BQK
   43    45     1     0     0
SMALL
bcc


@<TRIPOS>ATOM
      1 N            5.5220     0.5570     1.0960 n7         1 BQK      -0.782200
      2 CA           4.5630    -0.2910     0.4140 c6         1 BQK       0.044500
      3 C            3.2450     0.4420     0.2710 c          1 BQK       0.684100
      4 O            3.1690     1.6430     0.1590 o          1 BQK      -0.517100
      5 CB           5.0530    -0.7480    -0.9780 c6         1 BQK       0.119800
      6 CAF         -5.6840    -0.8790     0.4840 ca         1 BQK      -0.315000
      7 CAG         -3.5240    -1.3950    -0.4650 ca         1 BQK      -0.174000
      8 CAH         -3.8130     0.5990     0.8780 ca         1 BQK      -0.174000
      9 CAI          7.3310    -0.5060    -0.2350 c6         1 BQK       0.109800
     10 CAJ          6.8410    -0.0590     1.1370 c6         1 BQK       0.113800
     11 CAQ         -1.5440     2.3210    -1.2100 c          1 BQK       0.503600
     12 CAS         -4.8670    -1.7090    -0.2750 ca         1 BQK       0.181600
     13 CAT         -5.1520     0.2730     1.0590 ca         1 BQK       0.181600
     14 CAU         -3.0120    -0.2350     0.1080 ca         1 BQK       0.056000
     15 CAV          0.8510    -0.0150     0.0270 cc         1 BQK       0.572300
     16 CAW         -0.9160     1.1460    -0.5580 cd         1 BQK       0.298800
     17 CAX         -1.5830     0.0660    -0.0470 cc         1 BQK      -0.039400
     18 NAL          0.4510     1.0830    -0.5070 nd         1 BQK      -0.642000
     19 NAM          6.3710    -1.3500    -0.9310 n7         1 BQK      -0.788200
     20 NAO          2.1570    -0.3960     0.2250 ns         1 BQK      -0.553400
     21 OAB         -2.7290     2.3400    -1.4580 o          1 BQK      -0.510100
     22 OAE         -5.8970     1.1030     1.8100 oh         1 BQK      -0.490100
     23 SAP         -0.4290    -1.0760     0.5350 ss         1 BQK      -0.210300
     24 H1           5.5840     1.4460     0.6110 hn         1 BQK       0.377800
     25 H3           4.4150    -1.1890     1.0270 h1         1 BQK       0.065700
     26 H4           4.3550    -1.4610    -1.4230 h1         1 BQK       0.067200
     27 H5           5.0900     0.1230    -1.6410 h1         1 BQK       0.067200
     28 H6           0.1690     3.1340    -2.2150 hc         1 BQK       0.068367
     29 H7          -1.1870     4.2690    -2.0200 hc         1 BQK       0.068367
     30 H8          -0.1400     3.8380    -0.6480 hc         1 BQK       0.068367
     31 H9          -6.7310    -1.1290     0.6320 ha         1 BQK       0.132000
     32 H10         -2.8970    -2.0420    -1.0650 ha         1 BQK       0.155500
     33 H11         -3.4050     1.4880     1.3410 ha         1 BQK       0.155500
     34 H12          7.5260     0.3770    -0.8550 h1         1 BQK       0.062200
     35 H13          8.2770    -1.0460    -0.1480 h1         1 BQK       0.062200
     36 H14          7.5400     0.6510     1.5840 h1         1 BQK       0.060200
     37 H15          6.7960    -0.9240     1.8080 h1         1 BQK       0.060200
     38 H16          6.3110    -2.2460    -0.4600 hn         1 BQK       0.351800
     39 H18          2.3210    -1.3710     0.4270 hn         1 BQK       0.330500
     40 H19         -6.2650    -2.9540    -0.6640 ho         1 BQK       0.427000
     41 H20         -6.8010     0.7770     1.8850 ho         1 BQK       0.427000
     42 OAD         -5.3270    -2.8350    -0.8500 oh         1 BQK      -0.490100
     43 CAA         -0.6290     3.4630    -1.5490 c3         1 BQK      -0.183100
@<TRIPOS>BOND
     1     1     2 1   
     2     1    10 1   
     3     1    24 1   
     4     2     3 1   
     5     2     5 1   
     6     2    25 1   
     7     3     4 2   
     8     3    20 1   
     9     5    19 1   
    10     5    26 1   
    11     5    27 1   
    12     6    12 ar  
    13     6    13 ar  
    14     6    31 1   
    15     7    12 ar  
    16     7    14 ar  
    17     7    32 1   
    18     8    13 ar  
    19     8    14 ar  
    20     8    33 1   
    21     9    10 1   
    22     9    19 1   
    23     9    34 1   
    24     9    35 1   
    25    10    36 1   
    26    10    37 1   
    27    11    16 1   
    28    11    21 2   
    29    11    43 1   
    30    12    42 1   
    31    13    22 1   
    32    14    17 1   
    33    15    18 2   
    34    15    20 1   
    35    15    23 1   
    36    16    17 2   
    37    16    18 1   
    38    17    23 1   
    39    19    38 1   
    40    20    39 1   
    41    22    41 1   
    42    28    43 1   
    43    29    43 1   
    44    30    43 1   
    45    40    42 1   
@<TRIPOS>SUBSTRUCTURE
     1 BQK         1 TEMP              0 ****  ****    0 ROOT
