@<TRIPOS>MOLECULE
BQK
   43    45     1     0     0
SMALL
No Charge or Current Charge


@<TRIPOS>ATOM
      1 N            5.7490     0.6060    -0.7430 n7         1 BQK      -0.837400
      2 CA           4.8080     0.2770     0.4000 c6         1 BQK       0.044500
      3 C            3.3570     0.8660     0.1970 c          1 BQK       0.617100
      4 O            3.2000     2.0670     0.0160 o          1 BQK      -0.517100
      5 CB           4.8470    -1.2610     0.7220 c6         1 BQK       0.119800
      6 CAF         -5.5770    -1.0030    -0.2020 ca         1 BQK      -0.297000
      7 CAG         -3.4250    -0.7530    -1.3070 ca         1 BQK      -0.156000
      8 CAH         -3.6490    -0.2060     1.0480 ca         1 BQK      -0.156000
      9 CAI          7.1450    -1.4230    -0.1650 c6         1 BQK       0.109800
     10 CAJ          7.1300     0.1010    -0.4990 c6         1 BQK       0.113800
     11 CAQ         -1.8500     2.5610    -0.3850 c          1 BQK       0.503600
     12 CAS         -4.7820    -1.1010    -1.3520 ca         1 BQK       0.181600
     13 CAT         -5.0060    -0.5550     0.9970 ca         1 BQK       0.181600
     14 CAU         -2.8530    -0.2950    -0.1070 ca         1 BQK       0.056000
     15 CAV          0.9540     0.1980     0.0980 cc         1 BQK       0.572300
     16 CAW         -0.9610     1.3510    -0.1720 cd         1 BQK       0.233500
     17 CAX         -1.4390     0.0520    -0.0560 cc         1 BQK      -0.119000
     18 NAL          0.4360     1.4030    -0.0740 nd         1 BQK      -0.642000
     19 NAM          6.2330    -1.7520     0.9670 n7         1 BQK      -0.843400
     20 NAO          2.3040    -0.0320     0.2280 ns         1 BQK      -0.486400
     21 OAB         -3.0720     2.5170    -0.4860 o          1 BQK      -0.510100
     22 OAE         -5.7710    -0.4630     2.1180 oh         1 BQK      -0.529100
     23 SAP         -0.1820    -1.1220     0.1560 ss         1 BQK      -0.065400
     24 H1           5.3920     0.1680    -1.6040 hn         1 BQK       0.433000
     25 H3           5.1760     0.7940     1.2980 h1         1 BQK       0.065700
     26 H4           4.2320    -1.4700     1.6120 h1         1 BQK       0.067200
     27 H5           4.4150    -1.8240    -0.1200 h1         1 BQK       0.067200
     28 H6          -0.4020     3.8830    -1.2760 hc         1 BQK       0.068367
     29 H7          -1.8590     4.7510    -0.6350 hc         1 BQK       0.068367
     30 H8          -0.5420     4.0750     0.4130 hc         1 BQK       0.068367
     31 H9          -6.6290    -1.2750    -0.2390 ha         1 BQK       0.114000
     32 H10         -2.8160    -0.8350    -2.2030 ha         1 BQK       0.137500
     33 H11         -3.2150     0.1370     1.9830 ha         1 BQK       0.137500
     34 H12          6.8390    -1.9890    -1.0590 h1         1 BQK       0.062200
     35 H13          8.1720    -1.7340     0.0800 h1         1 BQK       0.062200
     36 H14          7.7580     0.2890    -1.3830 h1         1 BQK       0.060200
     37 H15          7.5770     0.6540     0.3400 h1         1 BQK       0.060200
     38 H16          6.5930    -1.2850     1.8100 hn         1 BQK       0.407000
     39 H18          2.5680    -0.9950     0.3640 hn         1 BQK       0.330500
     40 H19         -6.2770    -1.7320    -2.3540 ho         1 BQK       0.466000
     41 H20         -6.6810    -0.7460     1.8880 ho         1 BQK       0.466000
     42 OAD         -5.3300    -1.5400    -2.5170 oh         1 BQK      -0.529100
     43 CAA         -1.1560     3.9240    -0.4820 c3         1 BQK      -0.183100
@<TRIPOS>BOND
     1     1     2 1   
     2     1    10 1   
     3     1    24 1   
     4     2     3 1   
     5     2     5 1   
     6     2    25 1   
     7     3     4 2   
     8     3    20 1   
     9     5    19 1   
    10     5    26 1   
    11     5    27 1   
    12     6    12 ar  
    13     6    13 ar  
    14     6    31 1   
    15     7    12 ar  
    16     7    14 ar  
    17     7    32 1   
    18     8    13 ar  
    19     8    14 ar  
    20     8    33 1   
    21     9    10 1   
    22     9    19 1   
    23     9    34 1   
    24     9    35 1   
    25    10    36 1   
    26    10    37 1   
    27    11    16 1   
    28    11    21 2   
    29    11    43 1   
    30    12    42 1   
    31    13    22 1   
    32    14    17 1   
    33    15    18 2   
    34    15    20 1   
    35    15    23 1   
    36    16    17 2   
    37    16    18 1   
    38    17    23 1   
    39    19    38 1   
    40    20    39 1   
    41    22    41 1   
    42    28    43 1   
    43    29    43 1   
    44    30    43 1   
    45    40    42 1   
@<TRIPOS>SUBSTRUCTURE
     1 BQK         1 TEMP              0 ****  ****    0 ROOT
