@<TRIPOS>MOLECULE
BQL
   43    44     1     0     0
SMALL
No Charge or Current Charge


@<TRIPOS>ATOM
      1 N          102.2870    78.6340    63.0760 n8         1 BQL      -1.006200
      2 CA         101.3690    79.7270    62.5780 c3         1 BQL       0.003500
      3 C          101.8210    80.4380    61.2680 c          1 BQL       0.581900
      4 O          101.4350    80.1050    60.1490 o          1 BQL      -0.553100
      5 CB         101.0660    80.7980    63.6720 c3         1 BQL       0.225600
      6 C1          99.8120    76.2080    60.7430 c5         1 BQL       0.323700
      7 C2         101.3090    74.1720    60.7350 c          1 BQL       0.621000
      8 C7          98.3850    75.5410    60.8330 c5         1 BQL       0.106300
      9 C3          99.0190    76.6490    62.8710 c5         1 BQL       0.132300
     10 C8          98.1950    75.4200    62.3790 c5         1 BQL       0.102300
     11 C4         102.5850    73.5730    58.7370 c          1 BQL       0.592200
     12 C5         101.9490    74.7000    58.0670 cc         1 BQL      -0.399200
     13 C9          99.3420    76.6520    64.3940 c3         1 BQL       0.245600
     14 C6         101.0500    75.5170    58.7120 cd         1 BQL       0.032600
     15 N1         100.7320    75.2670    60.0470 n          1 BQL      -0.309000
     16 N3         102.1930    73.4190    60.0250 ns         1 BQL      -0.472500
     17 O1          96.7960    75.4770    62.7270 oh         1 BQL      -0.698000
     18 O3          97.3370    76.3780    60.3240 oh         1 BQL      -0.725000
     19 O4         100.2260    76.5270    62.0870 os         1 BQL      -0.444000
     20 O5         100.0980    77.8220    64.7650 os         1 BQL      -0.611400
     21 OP1         98.8100    79.2540    66.4380 o          1 BQL      -0.817500
     22 OP2         98.3310    79.5680    64.0320 o          1 BQL      -0.817500
     23 OP3        100.6430    80.2010    64.9200 os         1 BQL      -0.587400
     24 P           99.3630    79.2270    65.0520 p5         1 BQL       1.388800
     25 H1         101.8470    78.2620    63.9330 hn         1 BQL       0.410000
     26 H2         102.2050    77.8270    62.4420 hn         1 BQL       0.410000
     27 H4         100.4120    79.2550    62.3210 h1         1 BQL       0.075700
     28 H5         102.5320    81.2850    61.3980 h4         1 BQL      -0.014800
     29 H6         101.9710    81.3960    63.8430 h1         1 BQL       0.043700
     30 H7         100.2920    81.4830    63.2990 h1         1 BQL       0.043700
     31 H8          99.7630    77.1270    60.1450 h2         1 BQL       0.090700
     32 H9          98.3580    74.5530    60.3520 h1         1 BQL       0.062700
     33 H10         98.5070    77.5800    62.5990 h1         1 BQL       0.105700
     34 H11         98.6490    74.4860    62.7440 h1         1 BQL       0.073700
     35 H12        102.2320    74.8550    57.0310 ha         1 BQL       0.219000
     36 H13         98.3990    76.6100    64.9560 h1         1 BQL       0.043700
     37 H14         99.9090    75.7440    64.6370 h1         1 BQL       0.043700
     38 H15        100.5490    76.3730    58.2620 h4         1 BQL       0.217000
     39 H16        102.6020    72.6440    60.5190 hn         1 BQL       0.335500
     40 H17         96.6540    74.8880    63.5070 ho         1 BQL       0.502000
     41 H18         96.6530    76.3070    61.0430 ho         1 BQL       0.531000
     42 O2         101.0430    73.8600    61.8830 o          1 BQL      -0.557000
     43 O6         103.3890    72.8270    58.2080 o          1 BQL      -0.550000
@<TRIPOS>BOND
     1     1     2 1   
     2     1    25 1   
     3     1    26 1   
     4     2     3 1   
     5     2     5 1   
     6     2    27 1   
     7     3     4 2   
     8     3    28 1   
     9     5    23 1   
    10     5    29 1   
    11     5    30 1   
    12     6     8 1   
    13     6    15 1   
    14     6    19 1   
    15     6    31 1   
    16     7    15 1   
    17     7    16 1   
    18     7    42 2   
    19     8    10 1   
    20     8    18 1   
    21     8    32 1   
    22     9    10 1   
    23     9    13 1   
    24     9    19 1   
    25     9    33 1   
    26    10    17 1   
    27    10    34 1   
    28    11    12 1   
    29    11    16 1   
    30    11    43 2   
    31    12    14 2   
    32    12    35 1   
    33    13    20 1   
    34    13    36 1   
    35    13    37 1   
    36    14    15 1   
    37    14    38 1   
    38    16    39 1   
    39    17    40 1   
    40    18    41 1   
    41    20    24 1   
    42    21    24 1   
    43    22    24 1   
    44    23    24 1   
@<TRIPOS>SUBSTRUCTURE
     1 BQL         1 TEMP              0 ****  ****    0 ROOT
