@<TRIPOS>MOLECULE
BQL
   43    44     1     0     0
SMALL
abcg2


@<TRIPOS>ATOM
      1 N          102.8210    79.5300    62.9850 n8         1 BQL      -1.006200
      2 CA         101.4530    79.6270    62.4840 c3         1 BQL       0.003500
      3 C          101.4470    80.2860    61.1270 c          1 BQL       0.581900
      4 O          100.6180    80.0700    60.2720 o          1 BQL      -0.553100
      5 CB         100.6210    80.5140    63.4250 c3         1 BQL       0.225600
      6 C1          99.6940    76.1250    60.6720 c5         1 BQL       0.323700
      7 C2         100.8620    73.9560    60.6490 c          1 BQL       0.621000
      8 C7          98.2600    75.5780    60.8220 c5         1 BQL       0.106300
      9 C3          99.0040    76.6720    62.8220 c5         1 BQL       0.132300
     10 C8          98.0250    75.6000    62.3490 c5         1 BQL       0.102300
     11 C4         102.6600    73.5600    58.9740 c          1 BQL       0.592200
     12 C5         102.4140    74.8910    58.4780 cc         1 BQL      -0.399200
     13 C9          99.4380    76.5250    64.2590 c3         1 BQL       0.245600
     14 C6         101.4590    75.6490    59.0490 cd         1 BQL       0.032600
     15 N1         100.6810    75.2180    60.0950 n          1 BQL      -0.309000
     16 N3         101.8440    73.2040    60.0470 ns         1 BQL      -0.472500
     17 O1          96.6970    75.9720    62.6850 oh         1 BQL      -0.698000
     18 O3          97.3760    76.4800    60.1710 oh         1 BQL      -0.725000
     19 O4         100.1390    76.5250    61.9580 os         1 BQL      -0.444000
     20 O5         100.2820    77.6020    64.6720 os         1 BQL      -0.611400
     21 OP1         99.8960    78.9090    66.8270 o          1 BQL      -0.817500
     22 OP2         98.2750    79.1770    64.8190 o          1 BQL      -0.817500
     23 OP3        100.6940    80.0530    64.7740 os         1 BQL      -0.587400
     24 P           99.6520    78.9450    65.3550 p5         1 BQL       1.388800
     25 H1         102.7880    79.3270    63.9780 hn         1 BQL       0.410000
     26 H2         103.2980    78.7500    62.5450 hn         1 BQL       0.410000
     27 H4         100.9550    78.6600    62.3860 h1         1 BQL       0.075700
     28 H5         102.2600    81.0190    60.9610 h4         1 BQL      -0.014800
     29 H6         101.0240    81.5290    63.4310 h1         1 BQL       0.043700
     30 H7          99.5850    80.5390    63.0860 h1         1 BQL       0.043700
     31 H8          99.6550    76.9840    60.0000 h2         1 BQL       0.090700
     32 H9          98.1590    74.5780    60.4010 h1         1 BQL       0.062700
     33 H10         98.5510    77.6580    62.6780 h1         1 BQL       0.105700
     34 H11         98.2810    74.6320    62.7730 h1         1 BQL       0.073700
     35 H12        103.0020    75.2630    57.6550 ha         1 BQL       0.219000
     36 H13         98.5470    76.4590    64.8870 h1         1 BQL       0.043700
     37 H14        100.0170    75.6070    64.3730 h1         1 BQL       0.043700
     38 H15        101.2470    76.6530    58.7100 h4         1 BQL       0.217000
     39 H16        101.9790    72.2790    60.4380 hn         1 BQL       0.335500
     40 H17         96.1680    75.1740    62.8050 ho         1 BQL       0.502000
     41 H18         96.5960    76.5520    60.7450 ho         1 BQL       0.531000
     42 O2         100.2060    73.5400    61.5870 o          1 BQL      -0.557000
     43 O6         103.4910    72.7680    58.5440 o          1 BQL      -0.550000
@<TRIPOS>BOND
     1     1     2 1   
     2     1    25 1   
     3     1    26 1   
     4     2     3 1   
     5     2     5 1   
     6     2    27 1   
     7     3     4 2   
     8     3    28 1   
     9     5    23 1   
    10     5    29 1   
    11     5    30 1   
    12     6     8 1   
    13     6    15 1   
    14     6    19 1   
    15     6    31 1   
    16     7    15 1   
    17     7    16 1   
    18     7    42 2   
    19     8    10 1   
    20     8    18 1   
    21     8    32 1   
    22     9    10 1   
    23     9    13 1   
    24     9    19 1   
    25     9    33 1   
    26    10    17 1   
    27    10    34 1   
    28    11    12 1   
    29    11    16 1   
    30    11    43 2   
    31    12    14 2   
    32    12    35 1   
    33    13    20 1   
    34    13    36 1   
    35    13    37 1   
    36    14    15 1   
    37    14    38 1   
    38    16    39 1   
    39    17    40 1   
    40    18    41 1   
    41    20    24 1   
    42    21    24 1   
    43    22    24 1   
    44    23    24 1   
@<TRIPOS>SUBSTRUCTURE
     1 BQL         1 TEMP              0 ****  ****    0 ROOT
