@<TRIPOS>MOLECULE
BQM
   50    52     1     0     0
SMALL
abcg2


@<TRIPOS>ATOM
      1 F6          -2.9690     2.7350    -1.4760 f          1 BQM      -0.100333
      2 C12         -2.5140     2.6930    -0.2220 c3         1 BQM       0.359300
      3 F4          -1.9430     3.8660     0.0550 f          1 BQM      -0.100333
      4 F5          -3.5870     2.6340     0.5790 f          1 BQM      -0.100333
      5 C11         -1.5980     1.5150     0.0360 ca         1 BQM      -0.138300
      6 C9          -0.1970     1.6230    -0.0170 ca         1 BQM      -0.123300
      7 C10          0.4940     2.7810    -0.7100 c3         1 BQM       0.355300
      8 F3           0.8130     3.7730     0.1280 f          1 BQM      -0.103333
      9 F2           1.6340     2.3810    -1.2850 f          1 BQM      -0.103333
     10 F1          -0.2350     3.2930    -1.7040 f          1 BQM      -0.103333
     11 C13         -2.1860     0.2960     0.4010 ca         1 BQM      -0.067000
     12 S           -3.9430     0.0290     0.3130 ss         1 BQM       0.102000
     13 C14         -4.0120    -1.7200     0.0320 ca         1 BQM      -0.121000
     14 C19         -4.5250    -2.5280     1.0350 ca         1 BQM      -0.139000
     15 C18         -4.6600    -3.9090     0.8330 ca         1 BQM       0.289000
     16 N2          -5.1170    -4.7230     1.8400 nv         1 BQM      -1.078000
     17 C17         -4.2550    -4.4380    -0.3990 ca         1 BQM      -0.156000
     18 C16         -3.7420    -3.6160    -1.3890 ca         1 BQM      -0.079000
     19 C15         -3.6200    -2.2470    -1.1950 ca         1 BQM      -0.112000
     20 C20         -1.3700    -0.7420     0.8390 ca         1 BQM      -0.092000
     21 C21         -0.0090    -0.5760     0.9180 ca         1 BQM      -0.075000
     22 C8           0.6130     0.5910     0.4770 ca         1 BQM      -0.033800
     23 C7           2.0710     0.6990     0.6270 ce         1 BQM      -0.096200
     24 C6           2.9080    -0.3240     0.4460 cf         1 BQM      -0.272200
     25 C1           4.3570    -0.1530     0.7310 c          1 BQM       0.612300
     26 O1           4.7600     0.8670     1.2820 o          1 BQM      -0.603100
     27 N1           5.1940    -1.1550     0.3840 n          1 BQM      -0.410800
     28 C5           4.8650    -2.3670    -0.3480 c6         1 BQM       0.062000
     29 C4           5.7830    -2.5060    -1.5540 c6         1 BQM       0.134100
     30 O2           7.1410    -2.4710    -1.1860 os         1 BQM      -0.443000
     31 C3           7.4550    -1.2700    -0.5170 c6         1 BQM       0.134100
     32 C2           6.6050    -1.0880     0.7270 c6         1 BQM       0.062000
     33 H19         -4.8190    -2.0920     1.9820 ha         1 BQM       0.128000
     34 HN2         -5.6700    -4.2810     2.5560 hn         1 BQM       0.455500
     35 HN2A        -5.4990    -5.6110     1.5570 hn         1 BQM       0.455500
     36 H17         -4.3460    -5.5030    -0.5780 ha         1 BQM       0.116000
     37 H16         -3.4400    -4.0510    -2.3330 ha         1 BQM       0.117000
     38 H15         -3.2320    -1.6070    -1.9750 ha         1 BQM       0.130000
     39 H20         -1.8040    -1.6780     1.1590 ha         1 BQM       0.141000
     40 H21          0.5910    -1.3710     1.3430 ha         1 BQM       0.128000
     41 H7           2.4780     1.6470     0.9600 ha         1 BQM       0.219000
     42 H6           2.5220    -1.2720     0.1000 ha         1 BQM       0.181000
     43 H5           4.9810    -3.2310     0.3130 h1         1 BQM       0.062700
     44 H5A          3.8400    -2.3610    -0.7040 h1         1 BQM       0.062700
     45 H4           5.5970    -3.4630    -2.0420 h1         1 BQM       0.055200
     46 H4A          5.5540    -1.7070    -2.2740 h1         1 BQM       0.055200
     47 H3           8.5090    -1.3140    -0.2400 h1         1 BQM       0.055200
     48 H3A          7.3140    -0.4080    -1.1840 h1         1 BQM       0.055200
     49 H2           6.8300    -0.1310     1.1900 h1         1 BQM       0.062700
     50 H2A          6.8310    -1.8760     1.4540 h1         1 BQM       0.062700
@<TRIPOS>BOND
     1     1     2 1   
     2     2     3 1   
     3     2     4 1   
     4     2     5 1   
     5     5     6 ar  
     6     5    11 ar  
     7     6     7 1   
     8     6    22 ar  
     9     7     8 1   
    10     7     9 1   
    11     7    10 1   
    12    11    12 1   
    13    11    20 ar  
    14    12    13 1   
    15    13    14 ar  
    16    13    19 ar  
    17    14    15 ar  
    18    14    33 1   
    19    15    16 1   
    20    15    17 ar  
    21    16    34 1   
    22    16    35 1   
    23    17    18 ar  
    24    17    36 1   
    25    18    19 ar  
    26    18    37 1   
    27    19    38 1   
    28    20    21 ar  
    29    20    39 1   
    30    21    22 ar  
    31    21    40 1   
    32    22    23 1   
    33    23    24 2   
    34    23    41 1   
    35    24    25 1   
    36    24    42 1   
    37    25    26 2   
    38    25    27 1   
    39    27    28 1   
    40    27    32 1   
    41    28    29 1   
    42    28    43 1   
    43    28    44 1   
    44    29    30 1   
    45    29    45 1   
    46    29    46 1   
    47    30    31 1   
    48    31    32 1   
    49    31    47 1   
    50    31    48 1   
    51    32    49 1   
    52    32    50 1   
@<TRIPOS>SUBSTRUCTURE
     1 BQM         1 TEMP              0 ****  ****    0 ROOT
