@<TRIPOS>MOLECULE
BQM
   50    52     1     0     0
SMALL
No Charge or Current Charge


@<TRIPOS>ATOM
      1 F6          -3.5140     2.2850    -0.8730 f          1 BQM      -0.100333
      2 C12         -2.8720     2.5200     0.2940 c3         1 BQM       0.359300
      3 F4          -2.3860     3.7800     0.2390 f          1 BQM      -0.100333
      4 F5          -3.8220     2.5910     1.2530 f          1 BQM      -0.100333
      5 C11         -1.7820     1.4390     0.5800 ca         1 BQM      -0.138300
      6 C9          -0.4000     1.5930     0.1800 ca         1 BQM      -0.123300
      7 C10          0.0640     2.6920    -0.8290 c3         1 BQM       0.355300
      8 F3           0.3870     3.8460    -0.2010 f          1 BQM      -0.103333
      9 F2           1.1470     2.3340    -1.5570 f          1 BQM      -0.103333
     10 F1          -0.8670     2.9850    -1.7640 f          1 BQM      -0.103333
     11 C13         -2.1570     0.2380     1.2590 ca         1 BQM      -0.067000
     12 S           -3.8630    -0.2340     1.5880 ss         1 BQM       0.102000
     13 C14         -3.9850    -1.6900     0.5490 ca         1 BQM      -0.121000
     14 C19         -4.6220    -2.8450     1.0410 ca         1 BQM      -0.139000
     15 C18         -4.7270    -3.9940     0.2400 ca         1 BQM       0.289000
     16 N2          -5.3470    -5.1170     0.7220 nv         1 BQM      -1.078000
     17 C17         -4.1960    -3.9890    -1.0590 ca         1 BQM      -0.156000
     18 C16         -3.5630    -2.8370    -1.5600 ca         1 BQM      -0.079000
     19 C15         -3.4590    -1.6880    -0.7570 ca         1 BQM      -0.112000
     20 C20         -1.1880    -0.6840     1.6720 ca         1 BQM      -0.092000
     21 C21          0.1620    -0.4440     1.4350 ca         1 BQM      -0.075000
     22 C8           0.5690     0.6760     0.6960 ca         1 BQM      -0.033800
     23 C7           2.0410     0.8620     0.5260 ce         1 BQM      -0.096200
     24 C6           2.9770    -0.0970     0.2580 cf         1 BQM      -0.272200
     25 C1           4.4390     0.1850     0.1120 c          1 BQM       0.612300
     26 O1           4.8540     1.3280     0.2550 o          1 BQM      -0.603100
     27 N1           5.3420    -0.8640    -0.1880 n          1 BQM      -0.410800
     28 C5           4.9070    -2.3010    -0.2410 c6         1 BQM       0.062000
     29 C4           5.9590    -3.3110    -0.7690 c6         1 BQM       0.134100
     30 O2           7.2640    -3.0180    -0.2440 os         1 BQM      -0.443000
     31 C3           7.7330    -1.7270    -0.6670 c6         1 BQM       0.134100
     32 C2           6.8200    -0.6070    -0.1100 c6         1 BQM       0.062000
     33 H19         -5.0320    -2.8480     2.0470 ha         1 BQM       0.128000
     34 HN2         -5.8570    -5.0780     1.6020 hn         1 BQM       0.455500
     35 HN2A        -5.5480    -5.8960     0.0960 hn         1 BQM       0.455500
     36 H17         -4.2730    -4.8740    -1.6850 ha         1 BQM       0.116000
     37 H16         -3.1540    -2.8340    -2.5680 ha         1 BQM       0.117000
     38 H15         -2.9720    -0.8000    -1.1540 ha         1 BQM       0.130000
     39 H20         -1.4850    -1.5850     2.2030 ha         1 BQM       0.141000
     40 H21          0.8980    -1.1460     1.8180 ha         1 BQM       0.128000
     41 H7           2.3770     1.8950     0.6380 ha         1 BQM       0.219000
     42 H6           2.6360    -1.1200     0.1410 ha         1 BQM       0.181000
     43 H5           4.6050    -2.6100     0.7700 h1         1 BQM       0.062700
     44 H5A          4.0230    -2.3910    -0.8880 h1         1 BQM       0.062700
     45 H4           5.6730    -4.3330    -0.4840 h1         1 BQM       0.055200
     46 H4A          5.9970    -3.2670    -1.8680 h1         1 BQM       0.055200
     47 H3           8.7630    -1.5800    -0.3130 h1         1 BQM       0.055200
     48 H3A          7.7440    -1.6890    -1.7660 h1         1 BQM       0.055200
     49 H2           7.0560     0.3240    -0.6460 h1         1 BQM       0.062700
     50 H2A          7.0820    -0.4410     0.9440 h1         1 BQM       0.062700
@<TRIPOS>BOND
     1     1     2 1   
     2     2     3 1   
     3     2     4 1   
     4     2     5 1   
     5     5     6 ar  
     6     5    11 ar  
     7     6     7 1   
     8     6    22 ar  
     9     7     8 1   
    10     7     9 1   
    11     7    10 1   
    12    11    12 1   
    13    11    20 ar  
    14    12    13 1   
    15    13    14 ar  
    16    13    19 ar  
    17    14    15 ar  
    18    14    33 1   
    19    15    16 1   
    20    15    17 ar  
    21    16    34 1   
    22    16    35 1   
    23    17    18 ar  
    24    17    36 1   
    25    18    19 ar  
    26    18    37 1   
    27    19    38 1   
    28    20    21 ar  
    29    20    39 1   
    30    21    22 ar  
    31    21    40 1   
    32    22    23 1   
    33    23    24 2   
    34    23    41 1   
    35    24    25 1   
    36    24    42 1   
    37    25    26 2   
    38    25    27 1   
    39    27    28 1   
    40    27    32 1   
    41    28    29 1   
    42    28    43 1   
    43    28    44 1   
    44    29    30 1   
    45    29    45 1   
    46    29    46 1   
    47    30    31 1   
    48    31    32 1   
    49    31    47 1   
    50    31    48 1   
    51    32    49 1   
    52    32    50 1   
@<TRIPOS>SUBSTRUCTURE
     1 BQM         1 TEMP              0 ****  ****    0 ROOT
