@<TRIPOS>MOLECULE
BQN
   61    64     1     0     0
SMALL
No Charge or Current Charge


@<TRIPOS>ATOM
      1 F6          -1.7760     2.7980    -2.6340 f          1 BQN      -0.100667
      2 C12         -1.3440     3.1110    -1.3910 c3         1 BQN       0.358300
      3 F4          -0.7430     4.3190    -1.4660 f          1 BQN      -0.100667
      4 F5          -2.4460     3.3530    -0.6470 f          1 BQN      -0.100667
      5 C11         -0.4300     1.9900    -0.8000 ca         1 BQN      -0.145300
      6 C9           1.0100     2.0000    -0.9360 ca         1 BQN      -0.118300
      7 C10          1.7540     2.9470    -1.9320 c3         1 BQN       0.355300
      8 F3           2.0580     4.1350    -1.3620 f          1 BQN      -0.104000
      9 F2           2.9160     2.4350    -2.3980 f          1 BQN      -0.104000
     10 F1           1.0440     3.2050    -3.0530 f          1 BQN      -0.104000
     11 C13         -1.0350     0.9000    -0.0990 ca         1 BQN      -0.062000
     12 S           -2.8090     0.5910    -0.0680 ss         1 BQN       0.144000
     13 C14         -2.8540    -0.9750    -0.9400 ca         1 BQN      -0.219000
     14 C19         -3.5920    -2.0540    -0.4170 ca         1 BQN       0.189100
     15 O3          -4.2640    -1.8670     0.7740 os         1 BQN      -0.324100
     16 C20         -5.0350    -2.9070     1.3940 c3         1 BQN       0.214900
     17 C21         -5.6230    -2.3540     2.6790 ca         1 BQN      -0.155300
     18 C25         -6.8970    -1.7580     2.6980 ca         1 BQN      -0.041000
     19 C24         -7.3800    -1.2640     3.9200 ca         1 BQN      -0.166000
     20 C23         -6.5830    -1.3800     5.0710 ca         1 BQN       0.350900
     21 N2          -5.3550    -1.9490     5.0600 nb         1 BQN      -0.665000
     22 C22         -4.8910    -2.4230     3.8790 ca         1 BQN       0.358900
     23 C18         -3.6190    -3.2830    -1.1120 ca         1 BQN      -0.219000
     24 C17         -2.9150    -3.4270    -2.3190 ca         1 BQN      -0.036000
     25 C16         -2.1830    -2.3470    -2.8380 ca         1 BQN      -0.164000
     26 C15         -2.1510    -1.1230    -2.1520 ca         1 BQN      -0.016000
     27 C26         -0.2490    -0.0390     0.5770 ca         1 BQN      -0.097000
     28 C27          1.1370     0.0750     0.5870 ca         1 BQN      -0.072000
     29 C8           1.7760     1.0760    -0.1580 ca         1 BQN      -0.040800
     30 C7           3.2650     1.1340    -0.0550 ce         1 BQN      -0.093200
     31 C6           4.1420     0.0860    -0.0450 cf         1 BQN      -0.276200
     32 C1           5.6250     0.2430     0.0710 c          1 BQN       0.612300
     33 O1           6.1100     1.3610     0.1850 o          1 BQN      -0.602100
     34 N1           6.4670    -0.8960     0.0520 n          1 BQN      -0.410800
     35 C5           5.9180    -2.2940     0.0490 c6         1 BQN       0.061500
     36 C4           6.9520    -3.4300    -0.1670 c6         1 BQN       0.132100
     37 O2           8.1580    -3.1780     0.5730 os         1 BQN      -0.444000
     38 C3           8.8150    -1.9790     0.1310 c6         1 BQN       0.132100
     39 C2           7.9220    -0.7410     0.3920 c6         1 BQN       0.061500
     40 H20         -5.8450    -3.2370     0.7310 h1         1 BQN       0.045700
     41 H20A        -4.4020    -3.7740     1.6230 h1         1 BQN       0.045700
     42 H25         -7.4940    -1.6790     1.7910 ha         1 BQN       0.125000
     43 H24         -8.3590    -0.7970     3.9820 ha         1 BQN       0.129000
     44 H23         -6.9360    -1.0040     6.0310 h4         1 BQN       0.023100
     45 H22         -3.8990    -2.8750     3.9000 h4         1 BQN       0.017100
     46 H18         -4.1780    -4.1340    -0.7340 ha         1 BQN       0.121000
     47 H17         -2.9370    -4.3750    -2.8540 ha         1 BQN       0.117000
     48 H16         -1.6390    -2.4590    -3.7730 ha         1 BQN       0.124000
     49 H15         -1.5830    -0.2910    -2.5640 ha         1 BQN       0.131000
     50 H26         -0.7220    -0.8530     1.1220 ha         1 BQN       0.134000
     51 H27          1.7210    -0.6330     1.1690 ha         1 BQN       0.125000
     52 H7           3.6690     2.1460     0.0240 ha         1 BQN       0.218000
     53 H6           3.7350    -0.9160    -0.1300 ha         1 BQN       0.180000
     54 H5           5.4060    -2.4680     1.0070 h1         1 BQN       0.063200
     55 H5A          5.1660    -2.3900    -0.7460 h1         1 BQN       0.063200
     56 H4           6.5240    -4.3910     0.1510 h1         1 BQN       0.055200
     57 H4A          7.1980    -3.5100    -1.2360 h1         1 BQN       0.055200
     58 H3           9.7700    -1.8700     0.6630 h1         1 BQN       0.055200
     59 H3A          9.0340    -2.0620    -0.9440 h1         1 BQN       0.055200
     60 H2           8.3390     0.1060    -0.1710 h1         1 BQN       0.063200
     61 H2A          7.9970    -0.4800     1.4570 h1         1 BQN       0.063200
@<TRIPOS>BOND
     1     1     2 1   
     2     2     3 1   
     3     2     4 1   
     4     2     5 1   
     5     5     6 ar  
     6     5    11 ar  
     7     6     7 1   
     8     6    29 ar  
     9     7     8 1   
    10     7     9 1   
    11     7    10 1   
    12    11    12 1   
    13    11    27 ar  
    14    12    13 1   
    15    13    14 ar  
    16    13    26 ar  
    17    14    15 1   
    18    14    23 ar  
    19    15    16 1   
    20    16    17 1   
    21    16    40 1   
    22    16    41 1   
    23    17    18 ar  
    24    17    22 ar  
    25    18    19 ar  
    26    18    42 1   
    27    19    20 ar  
    28    19    43 1   
    29    20    21 ar  
    30    20    44 1   
    31    21    22 ar  
    32    22    45 1   
    33    23    24 ar  
    34    23    46 1   
    35    24    25 ar  
    36    24    47 1   
    37    25    26 ar  
    38    25    48 1   
    39    26    49 1   
    40    27    28 ar  
    41    27    50 1   
    42    28    29 ar  
    43    28    51 1   
    44    29    30 1   
    45    30    31 2   
    46    30    52 1   
    47    31    32 1   
    48    31    53 1   
    49    32    33 2   
    50    32    34 1   
    51    34    35 1   
    52    34    39 1   
    53    35    36 1   
    54    35    54 1   
    55    35    55 1   
    56    36    37 1   
    57    36    56 1   
    58    36    57 1   
    59    37    38 1   
    60    38    39 1   
    61    38    58 1   
    62    38    59 1   
    63    39    60 1   
    64    39    61 1   
@<TRIPOS>SUBSTRUCTURE
     1 BQN         1 TEMP              0 ****  ****    0 ROOT
