@<TRIPOS>MOLECULE
BQN
   61    64     1     0     0
SMALL
abcg2


@<TRIPOS>ATOM
      1 F6          -1.4930     3.0680    -2.6450 f          1 BQN      -0.100667
      2 C12         -1.3680     2.8880    -1.3280 c3         1 BQN       0.358300
      3 F4          -0.8620     4.0020    -0.7980 f          1 BQN      -0.100667
      4 F5          -2.6100     2.8010    -0.8310 f          1 BQN      -0.100667
      5 C11         -0.5680     1.6520    -0.9740 ca         1 BQN      -0.145300
      6 C9           0.8020     1.7090    -0.6650 ca         1 BQN      -0.118300
      7 C10          1.6670     2.8940    -1.0500 c3         1 BQN       0.355300
      8 F3           1.7960     3.7890    -0.0660 f          1 BQN      -0.104000
      9 F2           2.9020     2.4940    -1.3730 f          1 BQN      -0.104000
     10 F1           1.2150     3.5290    -2.1340 f          1 BQN      -0.104000
     11 C13         -1.2480     0.4250    -0.8980 ca         1 BQN      -0.062000
     12 S           -2.9270     0.2550    -1.4580 ss         1 BQN       0.144000
     13 C14         -3.0530    -1.4790    -1.7600 ca         1 BQN      -0.219000
     14 C19         -3.5990    -2.3230    -0.7800 ca         1 BQN       0.189100
     15 O3          -3.9000    -1.7600     0.3970 os         1 BQN      -0.324100
     16 C20         -4.4330    -2.5770     1.4320 c3         1 BQN       0.214900
     17 C21         -4.6540    -1.6940     2.6180 ca         1 BQN      -0.155300
     18 C25         -5.7230    -0.8070     2.6730 ca         1 BQN      -0.041000
     19 C24         -5.8680     0.0040     3.7850 ca         1 BQN      -0.166000
     20 C23         -4.9330    -0.1020     4.8060 ca         1 BQN       0.350900
     21 N2          -3.9070    -0.9420     4.7690 nb         1 BQN      -0.665000
     22 C22         -3.7770    -1.7130     3.6960 ca         1 BQN       0.358900
     23 C18         -3.7710    -3.6750    -1.0730 ca         1 BQN      -0.219000
     24 C17         -3.4040    -4.1670    -2.3170 ca         1 BQN      -0.036000
     25 C16         -2.8630    -3.3360    -3.2870 ca         1 BQN      -0.164000
     26 C15         -2.6970    -1.9890    -3.0020 ca         1 BQN      -0.016000
     27 C26         -0.5750    -0.6820    -0.3910 ca         1 BQN      -0.097000
     28 C27          0.7210    -0.5750     0.0520 ca         1 BQN      -0.072000
     29 C8           1.4460     0.6060    -0.0870 ca         1 BQN      -0.040800
     30 C7           2.8170     0.6500     0.4430 ce         1 BQN      -0.093200
     31 C6           3.6570    -0.3870     0.4070 cf         1 BQN      -0.276200
     32 C1           4.9860    -0.2860     1.0650 c          1 BQN       0.612300
     33 O1           5.2370     0.6570     1.8090 o          1 BQN      -0.602100
     34 N1           5.8790    -1.2730     0.8340 n          1 BQN      -0.410800
     35 C5           5.7720    -2.3480    -0.1390 c6         1 BQN       0.061500
     36 C4           6.9390    -2.2760    -1.1120 c6         1 BQN       0.132100
     37 O2           8.1790    -2.3000    -0.4460 os         1 BQN      -0.444000
     38 C3           8.2870    -1.2340     0.4710 c6         1 BQN       0.132100
     39 C2           7.1710    -1.2750     1.5010 c6         1 BQN       0.061500
     40 H20         -5.3740    -3.0310     1.1090 h1         1 BQN       0.045700
     41 H20A        -3.7360    -3.3840     1.6810 h1         1 BQN       0.045700
     42 H25         -6.4370    -0.7570     1.8600 ha         1 BQN       0.125000
     43 H24         -6.6890     0.7020     3.8670 ha         1 BQN       0.129000
     44 H23         -5.0220     0.5180     5.6920 h4         1 BQN       0.023100
     45 H22         -2.9300    -2.3920     3.6900 h4         1 BQN       0.017100
     46 H18         -4.1860    -4.3560    -0.3420 ha         1 BQN       0.121000
     47 H17         -3.5450    -5.2200    -2.5240 ha         1 BQN       0.117000
     48 H16         -2.5790    -3.7260    -4.2540 ha         1 BQN       0.124000
     49 H15         -2.2850    -1.3200    -3.7470 ha         1 BQN       0.131000
     50 H26         -1.0730    -1.6360    -0.3080 ha         1 BQN       0.134000
     51 H27          1.1810    -1.4310     0.5260 ha         1 BQN       0.125000
     52 H7           3.1410     1.5570     0.9390 ha         1 BQN       0.218000
     53 H6           3.3620    -1.2980    -0.0940 ha         1 BQN       0.180000
     54 H5           5.7790    -3.3080     0.3860 h1         1 BQN       0.063200
     55 H5A          4.8490    -2.2920    -0.7070 h1         1 BQN       0.063200
     56 H4           6.9070    -3.1350    -1.7830 h1         1 BQN       0.055200
     57 H4A          6.8430    -1.3650    -1.7200 h1         1 BQN       0.055200
     58 H3           9.2540    -1.3240     0.9680 h1         1 BQN       0.055200
     59 H3A          8.2630    -0.2690    -0.0530 h1         1 BQN       0.055200
     60 H2           7.2480    -0.4230     2.1710 h1         1 BQN       0.063200
     61 H2A          7.2520    -2.1860     2.1030 h1         1 BQN       0.063200
@<TRIPOS>BOND
     1     1     2 1   
     2     2     3 1   
     3     2     4 1   
     4     2     5 1   
     5     5     6 ar  
     6     5    11 ar  
     7     6     7 1   
     8     6    29 ar  
     9     7     8 1   
    10     7     9 1   
    11     7    10 1   
    12    11    12 1   
    13    11    27 ar  
    14    12    13 1   
    15    13    14 ar  
    16    13    26 ar  
    17    14    15 1   
    18    14    23 ar  
    19    15    16 1   
    20    16    17 1   
    21    16    40 1   
    22    16    41 1   
    23    17    18 ar  
    24    17    22 ar  
    25    18    19 ar  
    26    18    42 1   
    27    19    20 ar  
    28    19    43 1   
    29    20    21 ar  
    30    20    44 1   
    31    21    22 ar  
    32    22    45 1   
    33    23    24 ar  
    34    23    46 1   
    35    24    25 ar  
    36    24    47 1   
    37    25    26 ar  
    38    25    48 1   
    39    26    49 1   
    40    27    28 ar  
    41    27    50 1   
    42    28    29 ar  
    43    28    51 1   
    44    29    30 1   
    45    30    31 2   
    46    30    52 1   
    47    31    32 1   
    48    31    53 1   
    49    32    33 2   
    50    32    34 1   
    51    34    35 1   
    52    34    39 1   
    53    35    36 1   
    54    35    54 1   
    55    35    55 1   
    56    36    37 1   
    57    36    56 1   
    58    36    57 1   
    59    37    38 1   
    60    38    39 1   
    61    38    58 1   
    62    38    59 1   
    63    39    60 1   
    64    39    61 1   
@<TRIPOS>SUBSTRUCTURE
     1 BQN         1 TEMP              0 ****  ****    0 ROOT
