@<TRIPOS>MOLECULE
BQP
  102   107     1     0     0
SMALL
bcc


@<TRIPOS>ATOM
      1 N1          -8.5960    -0.4190    -0.1000 n3         1 BQP      -0.728600
      2 C2          -8.3610    -0.5970    -1.5250 c6         1 BQP       0.169800
      3 C4         -10.2760    -2.2150    -1.6400 c6         1 BQP       0.174600
      4 C5         -10.5430    -1.9040    -0.1830 c6         1 BQP      -0.103400
      5 C6         -10.0120    -0.5320     0.2100 c6         1 BQP       0.169800
      6 C15         -8.0270     0.8160     0.3990 c3         1 BQP       0.180800
      7 C17         -6.5130     0.6960     0.5460 c3         1 BQP      -0.009300
      8 C21         -3.4680     3.4400     0.6380 ca         1 BQP      -0.185300
      9 C22         -2.1360     3.4050     0.2550 ca         1 BQP      -0.073000
     10 C23         -1.5000     2.2080    -0.0250 ca         1 BQP      -0.131000
     11 C24         -2.1860     1.0030     0.0960 ca         1 BQP      -0.067500
     12 C25         -3.5240     1.0390     0.4970 ca         1 BQP      -0.127000
     13 C26         -4.1810     2.2340     0.7500 ca         1 BQP       0.078900
     14 C3          -8.8230    -1.9720    -1.9840 c6         1 BQP      -0.103400
     15 C42         -1.5500    -0.2860    -0.1850 cc         1 BQP       0.378800
     16 C46         -0.1980    -1.9540    -0.6800 cd         1 BQP      -0.095600
     17 C47         -0.2080    -0.5910    -0.5060 cc         1 BQP      -0.259600
     18 C51          1.0290     0.2370    -0.6560 c6         1 BQP       0.175300
     19 C53          2.0190    -1.7840    -1.6350 c6         1 BQP       0.108000
     20 C54          0.9910    -2.7570    -1.0620 c6         1 BQP      -0.031100
     21 C62         -1.7060    -4.4410     0.8760 c3         1 BQP      -0.105400
     22 C64         -2.1750    -5.8830     0.8230 c3         1 BQP       0.144400
     23 C72          4.4780    -1.3190    -0.1760 c3         1 BQP      -0.148400
     24 C75          5.7610    -0.8310     0.4840 c6         1 BQP      -0.051700
     25 C76          6.4110     0.3120    -0.2910 c6         1 BQP      -0.074400
     26 C77          7.7460     0.7120     0.3170 c6         1 BQP       0.171800
     27 C79          8.0860    -1.4840     1.1880 c6         1 BQP       0.171800
     28 C80          6.7700    -1.9700     0.6000 c6         1 BQP      -0.074400
     29 C90         10.7970     0.7380    -0.1730 c6         1 BQP      -0.059700
     30 C91         10.9890    -0.0590    -1.4620 c6         1 BQP      -0.069900
     31 C92         11.8500     0.6950    -2.4700 c6         1 BQP      -0.072900
     32 C93         13.1980     1.0850    -1.8730 c6         1 BQP      -0.074400
     33 C94         13.0160     1.8820    -0.5850 c6         1 BQP      -0.072900
     34 C95         12.1530     1.1240     0.4190 c6         1 BQP      -0.069900
     35 F13        -11.0740    -1.3730    -2.4350 f          1 BQP      -0.258300
     36 N44         -2.2780    -1.3960    -0.1600 nd         1 BQP      -0.515800
     37 N45         -1.4560    -2.3860    -0.4660 na         1 BQP       0.132400
     38 N54          2.1910    -0.6330    -0.7650 n          1 BQP      -0.487800
     39 N80          8.6560    -0.4150     0.3900 n3         1 BQP      -0.727600
     40 O68         -1.9550    -6.4750     2.0830 oh         1 BQP      -0.592800
     41 S19         -5.8800     2.2550     1.2280 ss         1 BQP      -0.230000
     42 H2          -8.8640     0.1880    -2.1140 h1         1 BQP       0.039700
     43 H3          -7.2940    -0.5020    -1.7340 h1         1 BQP       0.039700
     44 H4         -10.5690    -3.2400    -1.8800 h1         1 BQP       0.052700
     45 H5         -11.6120    -1.9700     0.0320 hc         1 BQP       0.057700
     46 H6         -10.0490    -2.6710     0.4190 hc         1 BQP       0.057700
     47 H7         -10.1470    -0.3910     1.2840 h1         1 BQP       0.039700
     48 H8         -10.6040     0.2540    -0.2870 h1         1 BQP       0.039700
     49 H9          -8.2710     1.6780    -0.2410 h1         1 BQP       0.047200
     50 H10         -8.4610     1.0200     1.3810 h1         1 BQP       0.047200
     51 H11         -6.2720    -0.1350     1.2080 h1         1 BQP       0.074200
     52 H12         -6.0340     0.5260    -0.4190 h1         1 BQP       0.074200
     53 H13         -1.5710     4.3210     0.1520 ha         1 BQP       0.150000
     54 H14         -0.4690     2.2420    -0.3440 ha         1 BQP       0.143000
     55 H15         -4.0470     0.1010     0.6160 ha         1 BQP       0.156000
     56 H16         -8.6610    -2.0840    -3.0580 hc         1 BQP       0.057700
     57 H17         -8.2260    -2.7410    -1.4890 hc         1 BQP       0.057700
     58 H18          0.9680     0.8790    -1.5430 h1         1 BQP       0.069700
     59 H19          1.1680     0.8910     0.2020 h1         1 BQP       0.069700
     60 H20          2.9640    -2.2910    -1.7920 h1         1 BQP       0.055700
     61 H21          1.6790    -1.4330    -2.6140 h1         1 BQP       0.055700
     62 H22          1.4090    -3.2820    -0.1980 hc         1 BQP       0.061700
     63 H23          0.7510    -3.5140    -1.8120 hc         1 BQP       0.061700
     64 H24         -1.4020    -4.2910    -1.2610 h1         1 BQP       0.065700
     65 H25         -2.9800    -3.7360    -0.7290 h1         1 BQP       0.065700
     66 H26         -0.6450    -4.4120     1.1380 hc         1 BQP       0.070700
     67 H27         -2.2510    -3.8990     1.6530 hc         1 BQP       0.070700
     68 H28         -3.2370    -5.9100     0.5450 h1         1 BQP       0.016700
     69 H29         -1.6280    -6.4100     0.0300 h1         1 BQP       0.016700
     70 H30          4.1730    -2.2760     0.2650 hc         1 BQP       0.057200
     71 H31          4.6860    -1.5320    -1.2280 hc         1 BQP       0.057200
     72 H32          5.5320    -0.4800     1.4960 hc         1 BQP       0.069700
     73 H33          6.5760    -0.0060    -1.3270 hc         1 BQP       0.046950
     74 H34          5.7560     1.1840    -0.3220 hc         1 BQP       0.046950
     75 H35          8.1940     1.4990    -0.2910 h1         1 BQP       0.031700
     76 H36          7.5750     1.1470     1.3200 h1         1 BQP       0.031700
     77 H37          7.9190    -1.1650     2.2330 h1         1 BQP       0.031700
     78 H38          8.7990    -2.3110     1.2240 h1         1 BQP       0.031700
     79 H39          6.3710    -2.7730     1.2270 hc         1 BQP       0.046950
     80 H40          6.9580    -2.4000    -0.3900 hc         1 BQP       0.046950
     81 H41         10.5210    -0.9490     1.1040 h1         1 BQP       0.028200
     82 H42          9.9210     0.5540     1.7900 h1         1 BQP       0.028200
     83 H43         10.2770     1.6710    -0.4270 hc         1 BQP       0.046700
     84 H44         11.4670    -1.0150    -1.2160 hc         1 BQP       0.041200
     85 H45         10.0160    -0.3040    -1.8930 hc         1 BQP       0.041200
     86 H46         11.9930     0.0900    -3.3700 hc         1 BQP       0.037200
     87 H47         11.3220     1.6010    -2.7880 hc         1 BQP       0.037200
     88 H48         13.7760     0.1790    -1.6580 hc         1 BQP       0.037200
     89 H49         13.7830     1.6610    -2.5950 hc         1 BQP       0.037200
     90 H50         13.9870     2.1180    -0.1430 hc         1 BQP       0.037200
     91 H51         12.5410     2.8410    -0.8200 hc         1 BQP       0.037200
     92 H52         12.0090     1.7250     1.3220 hc         1 BQP       0.041200
     93 H53         12.6780     0.2140     0.7330 hc         1 BQP       0.041200
     94 H55         -2.2310    -7.3940     2.0340 ho         1 BQP       0.408000
     95 C33         -4.1340     4.7560     0.8930 c3         1 BQP       0.724200
     96 C60         -1.9230    -3.7550    -0.4660 c3         1 BQP       0.054300
     97 C68          3.3110    -0.3560    -0.0510 c          1 BQP       0.676100
     98 C87          9.9740    -0.0330     0.8550 c3         1 BQP       0.175800
     99 F47         -4.7480     4.7830     2.0860 f          1 BQP      -0.230967
    100 F48         -3.2700     5.7740     0.8840 f          1 BQP      -0.230967
    101 F49         -5.0690     5.0370    -0.0260 f          1 BQP      -0.230967
    102 O72          3.3740     0.6230     0.6800 o          1 BQP      -0.598100
@<TRIPOS>BOND
     1     1     2 1   
     2     1     5 1   
     3     1     6 1   
     4     2    14 1   
     5     2    42 1   
     6     2    43 1   
     7     3     4 1   
     8     3    14 1   
     9     3    35 1   
    10     3    44 1   
    11     4     5 1   
    12     4    45 1   
    13     4    46 1   
    14     5    47 1   
    15     5    48 1   
    16     6     7 1   
    17     6    49 1   
    18     6    50 1   
    19     7    41 1   
    20     7    51 1   
    21     7    52 1   
    22     8     9 ar  
    23     8    13 ar  
    24     8    95 1   
    25     9    10 ar  
    26     9    53 1   
    27    10    11 ar  
    28    10    54 1   
    29    11    12 ar  
    30    11    15 1   
    31    12    13 ar  
    32    12    55 1   
    33    13    41 1   
    34    14    56 1   
    35    14    57 1   
    36    15    17 1   
    37    15    36 2   
    38    16    17 2   
    39    16    20 1   
    40    16    37 1   
    41    17    18 1   
    42    18    38 1   
    43    18    58 1   
    44    18    59 1   
    45    19    20 1   
    46    19    38 1   
    47    19    60 1   
    48    19    61 1   
    49    20    62 1   
    50    20    63 1   
    51    21    22 1   
    52    21    66 1   
    53    21    67 1   
    54    21    96 1   
    55    22    40 1   
    56    22    68 1   
    57    22    69 1   
    58    23    24 1   
    59    23    70 1   
    60    23    71 1   
    61    23    97 1   
    62    24    25 1   
    63    24    28 1   
    64    24    72 1   
    65    25    26 1   
    66    25    73 1   
    67    25    74 1   
    68    26    39 1   
    69    26    75 1   
    70    26    76 1   
    71    27    28 1   
    72    27    39 1   
    73    27    77 1   
    74    27    78 1   
    75    28    79 1   
    76    28    80 1   
    77    29    30 1   
    78    29    34 1   
    79    29    83 1   
    80    29    98 1   
    81    30    31 1   
    82    30    84 1   
    83    30    85 1   
    84    31    32 1   
    85    31    86 1   
    86    31    87 1   
    87    32    33 1   
    88    32    88 1   
    89    32    89 1   
    90    33    34 1   
    91    33    90 1   
    92    33    91 1   
    93    34    92 1   
    94    34    93 1   
    95    36    37 1   
    96    37    96 1   
    97    38    97 1   
    98    39    98 1   
    99    40    94 1   
   100    64    96 1   
   101    65    96 1   
   102    81    98 1   
   103    82    98 1   
   104    95    99 1   
   105    95   100 1   
   106    95   101 1   
   107    97   102 2   
@<TRIPOS>SUBSTRUCTURE
     1 BQP         1 TEMP              0 ****  ****    0 ROOT
