@<TRIPOS>MOLECULE
BQP
  102   107     1     0     0
SMALL
No Charge or Current Charge


@<TRIPOS>ATOM
      1 N1          -8.9140    -0.0560    -0.5320 n3         1 BQP      -0.728600
      2 C2          -8.6800     0.1600    -1.9910 c6         1 BQP       0.169800
      3 C4         -10.8750    -1.0320    -2.5240 c6         1 BQP       0.193300
      4 C5         -11.1160    -1.1650    -1.0060 c6         1 BQP      -0.103400
      5 C6         -10.3710    -0.0630    -0.2200 c6         1 BQP       0.169800
      6 C15         -8.1740     0.9010     0.3340 c3         1 BQP       0.180800
      7 C17         -6.6360     0.8040     0.2430 c3         1 BQP       0.038600
      8 C21         -3.2980     3.0220     1.0020 ca         1 BQP      -0.185300
      9 C22         -1.9320     2.8810     0.6770 ca         1 BQP      -0.055000
     10 C23         -1.3650     1.6180     0.4410 ca         1 BQP      -0.113000
     11 C24         -2.1360     0.4360     0.5300 ca         1 BQP      -0.067500
     12 C25         -3.5090     0.5900     0.8420 ca         1 BQP      -0.109000
     13 C26         -4.0910     1.8520     1.0720 ca         1 BQP      -0.048000
     14 C3          -9.3680    -0.9320    -2.8420 c6         1 BQP      -0.103400
     15 C42         -1.5930    -0.9310     0.2850 cc         1 BQP       0.313500
     16 C46         -0.2530    -2.6760    -0.1220 cd         1 BQP      -0.146300
     17 C47         -0.2430    -1.3390     0.0790 cc         1 BQP      -0.194300
     18 C51          1.0230    -0.5160     0.1130 c6         1 BQP       0.175300
     19 C53          2.1630    -2.6000    -0.7610 c6         1 BQP       0.108000
     20 C54          0.9830    -3.5050    -0.3300 c6         1 BQP      -0.031100
     21 C62         -2.0330    -5.2310     1.1340 c3         1 BQP      -0.105400
     22 C64         -2.6050    -6.6510     0.9880 c3         1 BQP       0.167600
     23 C72          4.8090    -1.5630     0.2510 c3         1 BQP      -0.148400
     24 C75          6.1470    -0.8820     0.6810 c6         1 BQP      -0.051700
     25 C76          6.6320     0.1730    -0.3480 c6         1 BQP      -0.074400
     26 C77          7.9850     0.7960     0.0770 c6         1 BQP       0.171800
     27 C79          8.6030    -1.2500     1.2910 c6         1 BQP       0.171800
     28 C80          7.2690    -1.9290     0.8950 c6         1 BQP      -0.074400
     29 C90         11.0360     1.2110    -0.4940 c6         1 BQP      -0.059700
     30 C91         11.1510     0.4830    -1.8650 c6         1 BQP      -0.069900
     31 C92         11.8250     1.3820    -2.9320 c6         1 BQP      -0.072900
     32 C93         13.2130     1.8760    -2.4560 c6         1 BQP      -0.074400
     33 C94         13.1070     2.6050    -1.0950 c6         1 BQP      -0.072900
     34 C95         12.4350     1.7050    -0.0280 c6         1 BQP      -0.069900
     35 F13        -11.5090     0.1440    -2.9790 f          1 BQP      -0.277000
     36 N44         -2.4180    -1.9690     0.2100 nd         1 BQP      -0.515800
     37 N45         -1.5900    -3.0500    -0.0390 na         1 BQP       0.153800
     38 N54          2.2730    -1.3380     0.0420 n          1 BQP      -0.420800
     39 N80          9.0340    -0.2450     0.2800 n3         1 BQP      -0.727600
     40 O68         -2.4730    -7.3490     2.2290 oh         1 BQP      -0.655000
     41 S19         -5.8410     1.9370     1.4690 ss         1 BQP      -0.151000
     42 H2          -9.0560     1.1480    -2.2950 h1         1 BQP       0.039700
     43 H3          -7.6060     0.1390    -2.2230 h1         1 BQP       0.039700
     44 H4         -11.3270    -1.8770    -3.0620 h1         1 BQP       0.052700
     45 H5         -12.1910    -1.1190    -0.7890 hc         1 BQP       0.057700
     46 H6         -10.7690    -2.1500    -0.6670 hc         1 BQP       0.057700
     47 H7         -10.5290    -0.2350     0.8550 h1         1 BQP       0.039700
     48 H8         -10.8160     0.9160    -0.4570 h1         1 BQP       0.039700
     49 H9          -8.4720     1.9320     0.0970 h1         1 BQP       0.047200
     50 H10         -8.4480     0.7240     1.3830 h1         1 BQP       0.047200
     51 H11         -6.3280    -0.2290     0.4440 h1         1 BQP       0.074200
     52 H12         -6.2960     1.0870    -0.7590 h1         1 BQP       0.074200
     53 H13         -1.2880     3.7540     0.5970 ha         1 BQP       0.132000
     54 H14         -0.3200     1.6010     0.1740 ha         1 BQP       0.125000
     55 H15         -4.1410    -0.2880     0.9310 ha         1 BQP       0.138000
     56 H16         -9.2210    -0.7240    -3.9100 hc         1 BQP       0.057700
     57 H17         -8.8900    -1.9010    -2.6430 hc         1 BQP       0.057700
     58 H18          1.0370     0.1850    -0.7330 h1         1 BQP       0.069700
     59 H19          1.0450     0.0740     1.0410 h1         1 BQP       0.069700
     60 H20          3.0790    -3.2000    -0.7070 h1         1 BQP       0.055700
     61 H21          2.0250    -2.3210    -1.8160 h1         1 BQP       0.055700
     62 H22          1.2450    -4.0180     0.6050 hc         1 BQP       0.061700
     63 H23          0.8190    -4.2870    -1.0840 hc         1 BQP       0.061700
     64 H24         -1.5940    -4.9260    -0.9720 h1         1 BQP       0.065700
     65 H25         -3.1890    -4.3370    -0.4720 h1         1 BQP       0.065700
     66 H26         -0.9810    -5.2950     1.4380 hc         1 BQP       0.070700
     67 H27         -2.5690    -4.7040     1.9330 hc         1 BQP       0.070700
     68 H28         -3.6620    -6.5890     0.6960 h1         1 BQP       0.016700
     69 H29         -2.0630    -7.1820     0.1940 h1         1 BQP       0.016700
     70 H30          4.6210    -2.4790     0.8240 hc         1 BQP       0.057200
     71 H31          4.8810    -1.9730    -0.7630 hc         1 BQP       0.057200
     72 H32          5.9590    -0.3830     1.6440 hc         1 BQP       0.069700
     73 H33          6.7450    -0.2930    -1.3370 hc         1 BQP       0.046950
     74 H34          5.8890     0.9720    -0.4640 hc         1 BQP       0.046950
     75 H35          8.2850     1.5060    -0.7060 h1         1 BQP       0.031700
     76 H36          7.8390     1.3750     1.0020 h1         1 BQP       0.031700
     77 H37          8.4830    -0.7710     2.2740 h1         1 BQP       0.031700
     78 H38          9.3710    -2.0290     1.4030 h1         1 BQP       0.031700
     79 H39          6.9780    -2.6420     1.6780 hc         1 BQP       0.046950
     80 H40          7.4180    -2.5150    -0.0230 hc         1 BQP       0.046950
     81 H41         11.0680    -0.5160     0.7950 h1         1 BQP       0.028200
     82 H42         10.3140     0.8990     1.5280 h1         1 BQP       0.028200
     83 H43         10.3970     2.0950    -0.6160 hc         1 BQP       0.046700
     84 H44         11.7280    -0.4450    -1.7470 hc         1 BQP       0.041200
     85 H45         10.1560     0.1860    -2.2210 hc         1 BQP       0.041200
     86 H46         11.9310     0.8260    -3.8740 hc         1 BQP       0.037200
     87 H47         11.1800     2.2440    -3.1500 hc         1 BQP       0.037200
     88 H48         13.8990     1.0220    -2.3670 hc         1 BQP       0.037200
     89 H49         13.6470     2.5490    -3.2080 hc         1 BQP       0.037200
     90 H50         14.1080     2.9040    -0.7540 hc         1 BQP       0.037200
     91 H51         12.5290     3.5320    -1.2150 hc         1 BQP       0.037200
     92 H52         12.3410     2.2630     0.9140 hc         1 BQP       0.041200
     93 H53         13.0840     0.8430     0.1850 hc         1 BQP       0.041200
     94 H55         -2.8510    -8.2470     2.0930 ho         1 BQP       0.447000
     95 C33         -3.8950     4.4210     1.2530 c3         1 BQP       0.360300
     96 C60         -2.1370    -4.4110    -0.1700 c3         1 BQP       0.083600
     97 C68          3.5140    -0.7240     0.3390 c          1 BQP       0.609100
     98 C87         10.3740     0.3130     0.6000 c3         1 BQP       0.175800
     99 F47         -4.4170     4.5310     2.4970 f          1 BQP      -0.109667
    100 F48         -2.9830     5.4140     1.1380 f          1 BQP      -0.109667
    101 F49         -4.8830     4.7130     0.3760 f          1 BQP      -0.109667
    102 O72          3.5440     0.4410     0.7170 o          1 BQP      -0.598100
@<TRIPOS>BOND
     1     1     2 1   
     2     1     5 1   
     3     1     6 1   
     4     2    14 1   
     5     2    42 1   
     6     2    43 1   
     7     3     4 1   
     8     3    14 1   
     9     3    35 1   
    10     3    44 1   
    11     4     5 1   
    12     4    45 1   
    13     4    46 1   
    14     5    47 1   
    15     5    48 1   
    16     6     7 1   
    17     6    49 1   
    18     6    50 1   
    19     7    41 1   
    20     7    51 1   
    21     7    52 1   
    22     8     9 ar  
    23     8    13 ar  
    24     8    95 1   
    25     9    10 ar  
    26     9    53 1   
    27    10    11 ar  
    28    10    54 1   
    29    11    12 ar  
    30    11    15 1   
    31    12    13 ar  
    32    12    55 1   
    33    13    41 1   
    34    14    56 1   
    35    14    57 1   
    36    15    17 1   
    37    15    36 2   
    38    16    17 2   
    39    16    20 1   
    40    16    37 1   
    41    17    18 1   
    42    18    38 1   
    43    18    58 1   
    44    18    59 1   
    45    19    20 1   
    46    19    38 1   
    47    19    60 1   
    48    19    61 1   
    49    20    62 1   
    50    20    63 1   
    51    21    22 1   
    52    21    66 1   
    53    21    67 1   
    54    21    96 1   
    55    22    40 1   
    56    22    68 1   
    57    22    69 1   
    58    23    24 1   
    59    23    70 1   
    60    23    71 1   
    61    23    97 1   
    62    24    25 1   
    63    24    28 1   
    64    24    72 1   
    65    25    26 1   
    66    25    73 1   
    67    25    74 1   
    68    26    39 1   
    69    26    75 1   
    70    26    76 1   
    71    27    28 1   
    72    27    39 1   
    73    27    77 1   
    74    27    78 1   
    75    28    79 1   
    76    28    80 1   
    77    29    30 1   
    78    29    34 1   
    79    29    83 1   
    80    29    98 1   
    81    30    31 1   
    82    30    84 1   
    83    30    85 1   
    84    31    32 1   
    85    31    86 1   
    86    31    87 1   
    87    32    33 1   
    88    32    88 1   
    89    32    89 1   
    90    33    34 1   
    91    33    90 1   
    92    33    91 1   
    93    34    92 1   
    94    34    93 1   
    95    36    37 1   
    96    37    96 1   
    97    38    97 1   
    98    39    98 1   
    99    40    94 1   
   100    64    96 1   
   101    65    96 1   
   102    81    98 1   
   103    82    98 1   
   104    95    99 1   
   105    95   100 1   
   106    95   101 1   
   107    97   102 2   
@<TRIPOS>SUBSTRUCTURE
     1 BQP         1 TEMP              0 ****  ****    0 ROOT
