@<TRIPOS>MOLECULE
BQQ
   42    44     1     0     0
SMALL
bcc


@<TRIPOS>ATOM
      1 N           -5.2680     0.1520     1.1860 n7         1 BQQ      -0.793200
      2 CA          -4.2460    -0.4630     0.3740 c6         1 BQQ       0.094500
      3 C           -2.9370     0.2980     0.5150 c          1 BQQ       0.669100
      4 O           -2.8490     1.4220     0.9430 o          1 BQQ      -0.496100
      5 CB          -4.6930    -0.4310    -1.0930 c6         1 BQQ       0.161800
      6 CAE          5.9200    -0.8340    -0.5350 ca         1 BQQ       0.349200
      7 CAF          4.0320     0.1580    -1.3490 ca         1 BQQ       0.402200
      8 CAG          3.9320    -0.9450     0.7720 ca         1 BQQ      -0.151000
      9 CAH         -6.9810    -0.5110    -0.3990 c6         1 BQQ       0.153800
     10 CAI         -6.5420    -0.5380     1.0520 c6         1 BQQ       0.160800
     11 CAQ          1.8370     2.6420    -0.0900 c          1 BQQ       0.501600
     12 CAS          5.2850    -1.2670     0.6360 ca         1 BQQ       0.041300
     13 CAT          3.3000    -0.2140    -0.2230 ca         1 BQQ      -0.095300
     14 CAU         -0.5560    -0.0030     0.0070 cc         1 BQQ       0.578300
     15 CAV          1.2040     1.3000    -0.0990 cd         1 BQQ       0.298800
     16 CAW          1.8740     0.1070    -0.1190 cc         1 BQQ      -0.035400
     17 NAK          5.3100    -0.1500    -1.4900 nb         1 BQQ      -0.635000
     18 NAL         -0.1600     1.2180    -0.0380 nd         1 BQQ      -0.643000
     19 NAM         -5.9520    -1.1370    -1.2100 n7         1 BQQ      -0.814200
     20 NAO         -1.8570    -0.4370     0.0790 ns         1 BQQ      -0.562400
     21 OAC          3.0430     2.7650    -0.0670 o          1 BQQ      -0.511100
     22 SAP          0.7280    -1.1770    -0.0280 ss         1 BQQ      -0.229300
     23 H1          -4.9860     0.1590     2.1570 hn         1 BQQ       0.370800
     24 H3          -4.0690    -1.5200     0.6410 h1         1 BQQ       0.038700
     25 H4          -4.7560     0.6220    -1.4110 h1         1 BQQ       0.046700
     26 H5          -3.9500    -0.9230    -1.7220 h1         1 BQQ       0.046700
     27 H6           0.2340     3.7840     0.7610 hc         1 BQQ       0.068700
     28 H7           1.4690     4.7490    -0.0790 hc         1 BQQ       0.068700
     29 H8           0.2720     3.7980    -0.9860 hc         1 BQQ       0.068700
     30 H9           6.9700    -1.0640    -0.6910 h4         1 BQQ       0.018100
     31 H10          3.5590     0.7070    -2.1540 h4         1 BQQ       0.028100
     32 H11          3.3870    -1.2540     1.6570 ha         1 BQQ       0.139000
     33 H12         -7.9130    -1.0680    -0.5100 h1         1 BQQ       0.043700
     34 H13         -7.1780     0.5310    -0.6930 h1         1 BQQ       0.043700
     35 H14         -6.4920    -1.5850     1.3880 h1         1 BQQ       0.041700
     36 H15         -7.2810    -0.0290     1.6730 h1         1 BQQ       0.041700
     37 H16          6.8230    -2.3900     1.3400 hn         1 BQQ       0.399800
     38 H17          5.4260    -2.4790     2.2590 hn         1 BQQ       0.399800
     39 H18         -6.2370    -1.1540    -2.1800 hn         1 BQQ       0.363800
     40 H20         -2.0270    -1.4050    -0.1540 hn         1 BQQ       0.332500
     41 NAB          5.9740    -1.9260     1.6210 nv         1 BQQ      -0.824200
     42 CAA          0.9050     3.8190    -0.0970 c3         1 BQQ      -0.182100
@<TRIPOS>BOND
     1     1     2 1   
     2     1    10 1   
     3     1    23 1   
     4     2     3 1   
     5     2     5 1   
     6     2    24 1   
     7     3     4 2   
     8     3    20 1   
     9     5    19 1   
    10     5    25 1   
    11     5    26 1   
    12     6    12 ar  
    13     6    17 ar  
    14     6    30 1   
    15     7    13 ar  
    16     7    17 ar  
    17     7    31 1   
    18     8    12 ar  
    19     8    13 ar  
    20     8    32 1   
    21     9    10 1   
    22     9    19 1   
    23     9    33 1   
    24     9    34 1   
    25    10    35 1   
    26    10    36 1   
    27    11    15 1   
    28    11    21 2   
    29    11    42 1   
    30    12    41 1   
    31    13    16 1   
    32    14    18 2   
    33    14    20 1   
    34    14    22 1   
    35    15    16 2   
    36    15    18 1   
    37    16    22 1   
    38    19    39 1   
    39    20    40 1   
    40    27    42 1   
    41    28    42 1   
    42    29    42 1   
    43    37    41 1   
    44    38    41 1   
@<TRIPOS>SUBSTRUCTURE
     1 BQQ         1 TEMP              0 ****  ****    0 ROOT
