@<TRIPOS>MOLECULE
BQQ
   42    44     1     0     0
SMALL
No Charge or Current Charge


@<TRIPOS>ATOM
      1 N           -5.4660     0.8600    -0.1450 n7         1 BQQ      -0.848400
      2 CA          -4.4780    -0.0670     0.5320 c6         1 BQQ       0.094500
      3 C           -3.0370     0.5630     0.6450 c          1 BQQ       0.602100
      4 O           -2.8910     1.6540     1.1810 o          1 BQQ      -0.496100
      5 CB          -4.5150    -1.5000    -0.1150 c6         1 BQQ       0.161800
      6 CAE          5.7730    -0.3730    -1.3200 ca         1 BQQ       0.283900
      7 CAF          3.7760     0.7730    -1.5730 ca         1 BQQ       0.336900
      8 CAG          3.8870    -1.0290     0.0530 ca         1 BQQ      -0.133000
      9 CAH         -6.8620    -1.1540    -0.8070 c6         1 BQQ       0.153800
     10 CAI         -6.8400     0.2800    -0.1830 c6         1 BQQ       0.160800
     11 CAQ          2.1370     2.3900     1.0220 c          1 BQQ       0.501600
     12 CAS          5.2300    -1.2210    -0.3110 ca         1 BQQ       0.245000
     13 CAT          3.1460    -0.0100    -0.5780 ca         1 BQQ      -0.030000
     14 CAU         -0.6410     0.1370     0.0920 cc         1 BQQ       0.578300
     15 CAV          1.2590     1.2820     0.4790 cd         1 BQQ       0.233500
     16 CAW          1.7400     0.1910    -0.2370 cc         1 BQQ      -0.115000
     17 NAK          5.0680     0.6040    -1.9470 nb         1 BQQ      -0.635000
     18 NAL         -0.1310     1.2250     0.6440 nd         1 BQQ      -0.643000
     19 NAM         -5.8920    -2.0750    -0.1450 n7         1 BQQ      -0.869400
     20 NAO         -1.9830    -0.1630     0.1140 ns         1 BQQ      -0.495400
     21 OAC          3.3580     2.4300     0.8990 o          1 BQQ      -0.511100
     22 SAP          0.4970    -0.9410    -0.6660 ss         1 BQQ      -0.084400
     23 H1          -5.4930     1.7550     0.3630 hn         1 BQQ       0.426000
     24 H3          -4.8000    -0.1900     1.5770 h1         1 BQQ       0.038700
     25 H4          -4.1320    -1.4420    -1.1450 h1         1 BQQ       0.046700
     26 H5          -3.8590    -2.1790     0.4510 h1         1 BQQ       0.046700
     27 H6           0.8500     3.0980     2.5970 hc         1 BQQ       0.068700
     28 H7           2.1370     4.2900     2.1400 hc         1 BQQ       0.068700
     29 H8           0.6630     3.9560     1.1360 hc         1 BQQ       0.068700
     30 H9           6.8090    -0.4870    -1.6360 h4         1 BQQ       0.018100
     31 H10          3.2240     1.5570    -2.0900 h4         1 BQQ       0.028100
     32 H11          3.4230    -1.6540     0.8110 ha         1 BQQ       0.121000
     33 H12         -7.8770    -1.5700    -0.7340 h1         1 BQQ       0.043700
     34 H13         -6.6150    -1.0770    -1.8770 h1         1 BQQ       0.043700
     35 H14         -7.2370     0.2260     0.8420 h1         1 BQQ       0.041700
     36 H15         -7.5050     0.9410    -0.7580 h1         1 BQQ       0.041700
     37 H16          6.9650    -2.3180     0.1280 hn         1 BQQ       0.455000
     38 H17          5.5720    -2.7430     1.0910 hn         1 BQQ       0.455000
     39 H18         -5.8750    -2.9690    -0.6540 hn         1 BQQ       0.419000
     40 H20         -2.2400    -1.0320    -0.3250 hn         1 BQQ       0.332500
     41 NAB          5.9660    -2.2180     0.3110 nv         1 BQQ      -1.073000
     42 CAA          1.4400     3.5260     1.7790 c3         1 BQQ      -0.182100
@<TRIPOS>BOND
     1     1     2 1   
     2     1    10 1   
     3     1    23 1   
     4     2     3 1   
     5     2     5 1   
     6     2    24 1   
     7     3     4 2   
     8     3    20 1   
     9     5    19 1   
    10     5    25 1   
    11     5    26 1   
    12     6    12 ar  
    13     6    17 ar  
    14     6    30 1   
    15     7    13 ar  
    16     7    17 ar  
    17     7    31 1   
    18     8    12 ar  
    19     8    13 ar  
    20     8    32 1   
    21     9    10 1   
    22     9    19 1   
    23     9    33 1   
    24     9    34 1   
    25    10    35 1   
    26    10    36 1   
    27    11    15 1   
    28    11    21 2   
    29    11    42 1   
    30    12    41 1   
    31    13    16 1   
    32    14    18 2   
    33    14    20 1   
    34    14    22 1   
    35    15    16 2   
    36    15    18 1   
    37    16    22 1   
    38    19    39 1   
    39    20    40 1   
    40    27    42 1   
    41    28    42 1   
    42    29    42 1   
    43    37    41 1   
    44    38    41 1   
@<TRIPOS>SUBSTRUCTURE
     1 BQQ         1 TEMP              0 ****  ****    0 ROOT
