@<TRIPOS>MOLECULE
BQR
   46    48     1     0     0
SMALL
No Charge or Current Charge


@<TRIPOS>ATOM
      1 N            4.3230     0.1560     0.0660 nu         1 BQR      -0.935100
      2 CA           5.7760    -0.1900     0.0260 c3         1 BQR       0.152800
      3 CAA         -6.2930    -2.0800     1.3100 c3         1 BQR       0.145900
      4 CAB         -6.7690     3.3040    -0.1990 c3         1 BQR       0.145900
      5 CAE         -5.2020    -0.0530     0.3930 ca         1 BQR       0.108100
      6 CAF         -5.3240     1.3050     0.0130 ca         1 BQR       0.118100
      7 CAG         -3.9580    -0.7100     0.2510 ca         1 BQR      -0.158000
      8 CAH         -4.2010     1.9870    -0.5030 ca         1 BQR      -0.174000
      9 CAI         -2.8230    -0.0350    -0.2650 cp         1 BQR      -0.042000
     10 CAJ         -2.9710     1.3220    -0.6370 ca         1 BQR      -0.091000
     11 CAK         -1.5090    -0.7370    -0.4130 cp         1 BQR       0.000000
     12 CAL         -0.2870    -0.0610    -0.1760 ca         1 BQR      -0.096000
     13 CAN         -1.4450    -2.0980    -0.7930 ca         1 BQR      -0.122000
     14 CAO          0.9590    -0.6980    -0.3080 ca         1 BQR       0.296000
     15 CAQ          3.2450    -0.6580    -0.2060 ca         1 BQR       0.590900
     16 CAV          9.1420     1.6560     0.6800 c3         1 BQR       0.094300
     17 CAW         -0.2130    -2.7560    -0.9320 ca         1 BQR      -0.054000
     18 CAX          0.9990    -2.0840    -0.6960 ca         1 BQR       0.163000
     19 CAZ          3.3010    -2.0330    -0.5930 ca         1 BQR       0.254900
     20 C            6.7300     0.9950     0.3980 c          1 BQR       0.586100
     21 O            6.3260     2.1140     0.6990 o          1 BQR      -0.593100
     22 NAP          2.0950     0.0140    -0.0610 nb         1 BQR      -0.739000
     23 NAU          8.0780     0.6970     0.3670 ns         1 BQR      -0.503900
     24 NAY          2.1750    -2.7560    -0.8410 nb         1 BQR      -0.601000
     25 OAD         -6.5530     1.9280     0.1600 os         1 BQR      -0.320100
     26 H            4.0570     1.1070     0.3250 hn         1 BQR       0.533000
     27 H1           5.9880    -1.0120     0.7230 h1         1 BQR       0.054200
     28 H2           6.0550    -0.5300    -0.9810 h1         1 BQR       0.054200
     29 H3          -6.0240    -2.7330     0.4690 h1         1 BQR       0.039700
     30 H4          -5.5700    -2.2330     2.1220 h1         1 BQR       0.039700
     31 H5          -7.2820    -2.3850     1.6740 h1         1 BQR       0.039700
     32 H6          -6.5710     3.4650    -1.2670 h1         1 BQR       0.040033
     33 H7          -7.8100     3.5890    -0.0010 h1         1 BQR       0.040033
     34 H8          -6.1180     3.9670     0.3850 h1         1 BQR       0.040033
     35 HAG         -3.8480    -1.7460     0.5530 ha         1 BQR       0.121000
     36 HAH         -4.2610     3.0280    -0.8070 ha         1 BQR       0.120000
     37 HAJ         -2.1240     1.8660    -1.0500 ha         1 BQR       0.120000
     38 HAL         -0.3040     0.9800     0.1310 ha         1 BQR       0.134000
     39 HAN         -2.3600    -2.6480    -0.9970 ha         1 BQR       0.118000
     40 H9           9.0910     2.5050    -0.0130 h1         1 BQR       0.045033
     41 H10          9.0230     2.0170     1.7100 h1         1 BQR       0.045033
     42 H11         10.1190     1.1660     0.5800 h1         1 BQR       0.045033
     43 HAW         -0.1960    -3.8020    -1.2290 ha         1 BQR       0.128000
     44 HAZ          4.2520    -2.5520    -0.7020 h4         1 BQR       0.020100
     45 HAU          8.3370    -0.2490     0.1100 hn         1 BQR       0.317500
     46 OAC         -6.3170    -0.7010     0.9000 os         1 BQR      -0.322100
@<TRIPOS>BOND
     1     1     2 1   
     2     1    15 1   
     3     1    26 1   
     4     2    20 1   
     5     2    27 1   
     6     2    28 1   
     7     3    29 1   
     8     3    30 1   
     9     3    31 1   
    10     3    46 1   
    11     4    25 1   
    12     4    32 1   
    13     4    33 1   
    14     4    34 1   
    15     5     6 ar  
    16     5     7 ar  
    17     5    46 1   
    18     6     8 ar  
    19     6    25 1   
    20     7     9 ar  
    21     7    35 1   
    22     8    10 ar  
    23     8    36 1   
    24     9    10 ar  
    25     9    11 1   
    26    10    37 1   
    27    11    12 ar  
    28    11    13 ar  
    29    12    14 ar  
    30    12    38 1   
    31    13    17 ar  
    32    13    39 1   
    33    14    18 ar  
    34    14    22 ar  
    35    15    19 ar  
    36    15    22 ar  
    37    16    23 1   
    38    16    40 1   
    39    16    41 1   
    40    16    42 1   
    41    17    18 ar  
    42    17    43 1   
    43    18    24 ar  
    44    19    24 ar  
    45    19    44 1   
    46    20    21 2   
    47    20    23 1   
    48    23    45 1   
@<TRIPOS>SUBSTRUCTURE
     1 BQR         1 TEMP              0 ****  ****    0 ROOT
