@<TRIPOS>MOLECULE
BQR
   46    48     1     0     0
SMALL
bcc


@<TRIPOS>ATOM
      1 N            4.3400     0.2730     0.1080 nu         1 BQR      -0.879900
      2 CA           5.6750    -0.2450     0.0500 c3         1 BQR       0.152800
      3 CAA         -6.1210    -2.0500     1.2670 c3         1 BQR       0.122700
      4 CAB         -6.7800     3.0930    -0.2180 c3         1 BQR       0.122700
      5 CAE         -5.1300    -0.0910     0.3800 ca         1 BQR       0.108100
      6 CAF         -5.3050     1.2560    -0.0060 ca         1 BQR       0.118100
      7 CAG         -3.8900    -0.6870     0.2420 ca         1 BQR      -0.176000
      8 CAH         -4.2240     1.9560    -0.5150 ca         1 BQR      -0.192000
      9 CAI         -2.7940     0.0240    -0.2680 cp         1 BQR      -0.042000
     10 CAJ         -2.9790     1.3450    -0.6430 ca         1 BQR      -0.109000
     11 CAK         -1.4760    -0.6280    -0.3940 cp         1 BQR       0.000000
     12 CAL         -0.3180     0.0770    -0.1470 ca         1 BQR      -0.179300
     13 CAN         -1.3870    -1.9910    -0.7740 ca         1 BQR      -0.140000
     14 CAO          0.9460    -0.5320    -0.2710 ca         1 BQR       0.361300
     15 CAQ          3.2190    -0.4260    -0.1390 ca         1 BQR       0.590900
     16 CAV          9.0190     1.4320     0.6150 c3         1 BQR       0.094300
     17 CAW         -0.1700    -2.6060    -0.8990 ca         1 BQR      -0.137300
     18 CAX          1.0150    -1.8910    -0.6500 ca         1 BQR       0.228300
     19 CAZ          3.2840    -1.8100    -0.5320 ca         1 BQR       0.254900
     20 C            6.6590     0.8740     0.3710 c          1 BQR       0.653100
     21 O            6.2860     2.0070     0.6390 o          1 BQR      -0.593100
     22 NAP          2.0630     0.1840    -0.0170 nb         1 BQR      -0.739000
     23 NAU          7.9420     0.5100     0.3370 ns         1 BQR      -0.570900
     24 NAY          2.2200    -2.5050    -0.7750 nb         1 BQR      -0.601000
     25 OAD         -6.5420     1.7520     0.1610 os         1 BQR      -0.296900
     26 H            4.2360     1.2390     0.3820 hn         1 BQR       0.477800
     27 H1           5.8300    -1.0600     0.7660 h1         1 BQR       0.054200
     28 H2           5.9150    -0.6440    -0.9410 h1         1 BQR       0.054200
     29 H3          -5.8560    -2.6980     0.4270 h1         1 BQR       0.039700
     30 H4          -5.3880    -2.1920     2.0650 h1         1 BQR       0.039700
     31 H5          -7.1020    -2.3390     1.6370 h1         1 BQR       0.039700
     32 H6          -6.6060     3.2530    -1.2850 h1         1 BQR       0.040033
     33 H7          -7.8270     3.2930    -0.0010 h1         1 BQR       0.040033
     34 H8          -6.1620     3.7950     0.3480 h1         1 BQR       0.040033
     35 HAG         -3.7480    -1.7120     0.5580 ha         1 BQR       0.139000
     36 HAH         -4.3310     2.9850    -0.8280 ha         1 BQR       0.138000
     37 HAJ         -2.1610     1.9140    -1.0650 ha         1 BQR       0.138000
     38 HAL         -0.3550     1.1110     0.1710 ha         1 BQR       0.152000
     39 HAN         -2.2890    -2.5460    -0.9920 ha         1 BQR       0.136000
     40 H9           9.0650     2.2340    -0.1220 h1         1 BQR       0.045033
     41 H10          8.9180     1.8780     1.6040 h1         1 BQR       0.045033
     42 H11          9.9550     0.8830     0.5820 h1         1 BQR       0.045033
     43 HAW         -0.1010    -3.6440    -1.1990 ha         1 BQR       0.146000
     44 HAZ          4.2410    -2.3090    -0.6380 h4         1 BQR       0.020100
     45 HAU          8.1770    -0.4400     0.1030 hn         1 BQR       0.317500
     46 OAC         -6.2240    -0.6960     0.8760 os         1 BQR      -0.298900
@<TRIPOS>BOND
     1     1     2 1   
     2     1    15 1   
     3     1    26 1   
     4     2    20 1   
     5     2    27 1   
     6     2    28 1   
     7     3    29 1   
     8     3    30 1   
     9     3    31 1   
    10     3    46 1   
    11     4    25 1   
    12     4    32 1   
    13     4    33 1   
    14     4    34 1   
    15     5     6 ar  
    16     5     7 ar  
    17     5    46 1   
    18     6     8 ar  
    19     6    25 1   
    20     7     9 ar  
    21     7    35 1   
    22     8    10 ar  
    23     8    36 1   
    24     9    10 ar  
    25     9    11 1   
    26    10    37 1   
    27    11    12 ar  
    28    11    13 ar  
    29    12    14 ar  
    30    12    38 1   
    31    13    17 ar  
    32    13    39 1   
    33    14    18 ar  
    34    14    22 ar  
    35    15    19 ar  
    36    15    22 ar  
    37    16    23 1   
    38    16    40 1   
    39    16    41 1   
    40    16    42 1   
    41    17    18 ar  
    42    17    43 1   
    43    18    24 ar  
    44    19    24 ar  
    45    19    44 1   
    46    20    21 2   
    47    20    23 1   
    48    23    45 1   
@<TRIPOS>SUBSTRUCTURE
     1 BQR         1 TEMP              0 ****  ****    0 ROOT
