@<TRIPOS>MOLECULE
BQS
  101   106     1     0     0
SMALL
abcg2


@<TRIPOS>ATOM
      1 C2           8.3330    -1.7280    -1.7090 c6         1 BQS       0.171300
      2 C3           8.7440    -3.1640    -1.4210 c6         1 BQS      -0.075400
      3 C5          10.5130    -2.2660     0.0910 c6         1 BQS      -0.075400
      4 C17          6.6060     0.5060    -0.3830 c3         1 BQS       0.042600
      5 C22          2.6520     3.4120     1.2310 ca         1 BQS      -0.054000
      6 C23          1.9800     2.2280     1.4830 ca         1 BQS      -0.113000
      7 C24          2.5220     1.0150     1.0670 ca         1 BQS      -0.066500
      8 C25          3.7520     1.0240     0.4070 ca         1 BQS      -0.108000
      9 C21          3.8770     3.4190     0.5800 ca         1 BQS      -0.186300
     10 C26          4.4440     2.2020     0.1660 ca         1 BQS      -0.045000
     11 C4          10.2180    -3.2370    -1.0450 c6         1 BQS      -0.075400
     12 C42          1.8360    -0.2570     1.3000 cc         1 BQS       0.311500
     13 C46          0.4090    -1.8800     1.7240 cd         1 BQS      -0.148300
     14 C47          0.4910    -0.5090     1.6470 cc         1 BQS      -0.200300
     15 C51         -0.7030     0.3680     1.8670 c6         1 BQS       0.173300
     16 C53         -1.8100    -1.6530     2.6670 c6         1 BQS       0.104000
     17 C54         -0.8140    -2.6490     2.0710 c6         1 BQS      -0.034100
     18 C6          10.0370    -0.8650    -0.2600 c6         1 BQS       0.171300
     19 C62          1.8480    -4.2500    -0.1390 c3         1 BQS      -0.098400
     20 C64          2.2590    -5.7090    -0.2730 c3         1 BQS      -0.090100
     21 C72         -4.0280    -1.2130     0.8970 c3         1 BQS      -0.150400
     22 C75         -5.1500    -0.8500    -0.0680 c6         1 BQS      -0.051700
     23 C76         -6.0140    -2.0730    -0.3570 c6         1 BQS      -0.073900
     24 C77         -7.1820    -1.7190    -1.2640 c6         1 BQS       0.170300
     25 C79         -7.2270     0.5280    -0.4520 c6         1 BQS       0.170300
     26 C80         -6.0450     0.2630     0.4690 c6         1 BQS      -0.073900
     27 C87         -9.1810    -0.4230    -1.4970 c3         1 BQS       0.173800
     28 C90        -10.2550     0.4240    -0.8190 c6         1 BQS      -0.059700
     29 C91        -10.6720    -0.1550     0.5310 c6         1 BQS      -0.069400
     30 C92        -11.7990     0.6500     1.1730 c6         1 BQS      -0.073400
     31 C93        -13.0000     0.7730     0.2410 c6         1 BQS      -0.074400
     32 C94        -12.5890     1.3630    -1.1040 c6         1 BQS      -0.073400
     33 C95        -11.4660     0.5540    -1.7440 c6         1 BQS      -0.069400
     34 F45          5.7200     4.7980     1.0810 f          1 BQS      -0.110667
     35 F46          4.9450     4.8810    -0.9250 f          1 BQS      -0.110667
     36 F47          3.8470     5.7720     0.6910 f          1 BQS      -0.110667
     37 N1           8.6170    -0.8640    -0.5740 n3         1 BQS      -0.730600
     38 N44          2.5000    -1.3990     1.1710 nd         1 BQS      -0.513800
     39 N45          1.6330    -2.3630     1.4370 na         1 BQS       0.153800
     40 N54         -1.9030    -0.4550     1.8500 n          1 BQS      -0.415800
     41 N80         -8.0050    -0.6730    -0.6870 n3         1 BQS      -0.722600
     42 O72         -2.8600     0.7640     0.2140 o          1 BQS      -0.594100
     43 S19          5.9960     2.1910    -0.6740 ss         1 BQS      -0.156000
     44 H1           8.8560    -1.3730    -2.6150 h1         1 BQS       0.030200
     45 H2           7.2650    -1.6920    -1.9340 h1         1 BQS       0.030200
     46 H3           8.1330    -3.5530    -0.6010 hc         1 BQS       0.046200
     47 H4           8.5330    -3.7830    -2.2960 hc         1 BQS       0.046200
     48 H5          10.0010    -2.5970     1.0000 hc         1 BQS       0.046200
     49 H6          11.5810    -2.2400     0.3160 hc         1 BQS       0.046200
     50 H7           8.2400     0.8500    -1.7720 h1         1 BQS       0.045200
     51 H8           8.6200     1.1530    -0.0820 h1         1 BQS       0.045200
     52 H9           6.0340    -0.2030    -0.9820 h1         1 BQS       0.074200
     53 H10          6.4840     0.2550     0.6710 h1         1 BQS       0.074200
     54 H11          2.2060     4.3370     1.5660 ha         1 BQS       0.131000
     55 H12          1.0450     2.2680     2.0230 ha         1 BQS       0.123000
     56 H13          4.1540     0.0800     0.0710 ha         1 BQS       0.137000
     57 H14         10.4950    -4.2560    -0.7650 hc         1 BQS       0.038700
     58 H15         10.8290    -2.9730    -1.9150 hc         1 BQS       0.038700
     59 H16         -0.6410     0.8920     2.8280 h1         1 BQS       0.071700
     60 H17         -0.7870     1.1270     1.0930 h1         1 BQS       0.071700
     61 H18         -2.7830    -2.1150     2.7940 h1         1 BQS       0.057700
     62 H19         -1.4710    -1.3560     3.6630 h1         1 BQS       0.057700
     63 H20         -1.2380    -3.1350     1.1870 hc         1 BQS       0.060700
     64 H21         -0.6080    -3.4370     2.7990 hc         1 BQS       0.060700
     65 H22         10.2060    -0.1930     0.5850 h1         1 BQS       0.030200
     66 H23         10.6390    -0.4760    -1.1000 h1         1 BQS       0.030200
     67 H24          1.4100    -4.3420     1.9770 h1         1 BQS       0.065700
     68 H25          3.0540    -3.8430     1.6130 h1         1 BQS       0.065700
     69 H26          0.8060    -4.1260    -0.4450 hc         1 BQS       0.055700
     70 H27          2.4480    -3.6280    -0.8070 hc         1 BQS       0.055700
     71 H28          2.1370    -6.0540    -1.2990 hc         1 BQS       0.037700
     72 H29          3.3040    -5.8530     0.0030 hc         1 BQS       0.037700
     73 H30          1.6540    -6.3530     0.3670 hc         1 BQS       0.037700
     74 H31         -3.6060    -2.1870     0.6210 hc         1 BQS       0.055700
     75 H32         -4.4510    -1.3540     1.8960 hc         1 BQS       0.055700
     76 H33         -4.7150    -0.5160    -1.0170 hc         1 BQS       0.068700
     77 H34         -5.4170    -2.8560    -0.8320 hc         1 BQS       0.046700
     78 H35         -6.3980    -2.4880     0.5820 hc         1 BQS       0.046700
     79 H36         -6.7910    -1.4260    -2.2560 h1         1 BQS       0.031450
     80 H37         -7.8020    -2.6050    -1.4230 h1         1 BQS       0.031450
     81 H38         -7.8650     1.2850     0.0080 h1         1 BQS       0.031450
     82 H39         -6.8620     0.9600    -1.4030 h1         1 BQS       0.031450
     83 H40         -6.4240    -0.0260     1.4560 hc         1 BQS       0.046700
     84 H41         -5.4800     1.1870     0.5990 hc         1 BQS       0.046700
     85 H42         -9.6270    -1.3930    -1.7420 h1         1 BQS       0.028200
     86 H43         -8.9150     0.0440    -2.4630 h1         1 BQS       0.028200
     87 H44         -9.8680     1.4380    -0.6490 hc         1 BQS       0.045700
     88 H45        -11.0040    -1.1910     0.3850 hc         1 BQS       0.041450
     89 H46         -9.8100    -0.2000     1.2000 hc         1 BQS       0.041450
     90 H47        -12.0970     0.1870     2.1180 hc         1 BQS       0.036950
     91 H48        -11.4320     1.6510     1.4230 hc         1 BQS       0.036950
     92 H49        -13.4380    -0.2190     0.0830 hc         1 BQS       0.037200
     93 H50        -13.7790     1.3870     0.7020 hc         1 BQS       0.037200
     94 H51        -13.4480     1.4090    -1.7780 hc         1 BQS       0.036950
     95 H52        -12.2520     2.3950    -0.9590 hc         1 BQS       0.036950
     96 H53        -11.1640     1.0130    -2.6900 hc         1 BQS       0.041450
     97 H54        -11.8360    -0.4480    -1.9910 hc         1 BQS       0.041450
     98 C15          8.0870     0.4720    -0.7490 c3         1 BQS       0.182800
     99 C33          4.5920     4.7150     0.3590 c3         1 BQS       0.359300
    100 C60          2.0170    -3.7510     1.2900 c3         1 BQS       0.082600
    101 C68         -2.8900    -0.2110     0.9520 c          1 BQS       0.608100
@<TRIPOS>BOND
     1     1     2 1   
     2     1    37 1   
     3     1    44 1   
     4     1    45 1   
     5     2    11 1   
     6     2    46 1   
     7     2    47 1   
     8     3    11 1   
     9     3    18 1   
    10     3    48 1   
    11     3    49 1   
    12     4    43 1   
    13     4    52 1   
    14     4    53 1   
    15     4    98 1   
    16     5     6 ar  
    17     5     9 ar  
    18     5    54 1   
    19     6     7 ar  
    20     6    55 1   
    21     7     8 ar  
    22     7    12 1   
    23     8    10 ar  
    24     8    56 1   
    25     9    10 ar  
    26     9    99 1   
    27    10    43 1   
    28    11    57 1   
    29    11    58 1   
    30    12    14 1   
    31    12    38 2   
    32    13    14 2   
    33    13    17 1   
    34    13    39 1   
    35    14    15 1   
    36    15    40 1   
    37    15    59 1   
    38    15    60 1   
    39    16    17 1   
    40    16    40 1   
    41    16    61 1   
    42    16    62 1   
    43    17    63 1   
    44    17    64 1   
    45    18    37 1   
    46    18    65 1   
    47    18    66 1   
    48    19    20 1   
    49    19    69 1   
    50    19    70 1   
    51    19   100 1   
    52    20    71 1   
    53    20    72 1   
    54    20    73 1   
    55    21    22 1   
    56    21    74 1   
    57    21    75 1   
    58    21   101 1   
    59    22    23 1   
    60    22    26 1   
    61    22    76 1   
    62    23    24 1   
    63    23    77 1   
    64    23    78 1   
    65    24    41 1   
    66    24    79 1   
    67    24    80 1   
    68    25    26 1   
    69    25    41 1   
    70    25    81 1   
    71    25    82 1   
    72    26    83 1   
    73    26    84 1   
    74    27    28 1   
    75    27    41 1   
    76    27    85 1   
    77    27    86 1   
    78    28    29 1   
    79    28    33 1   
    80    28    87 1   
    81    29    30 1   
    82    29    88 1   
    83    29    89 1   
    84    30    31 1   
    85    30    90 1   
    86    30    91 1   
    87    31    32 1   
    88    31    92 1   
    89    31    93 1   
    90    32    33 1   
    91    32    94 1   
    92    32    95 1   
    93    33    96 1   
    94    33    97 1   
    95    34    99 1   
    96    35    99 1   
    97    36    99 1   
    98    37    98 1   
    99    38    39 1   
   100    39   100 1   
   101    40   101 1   
   102    42   101 2   
   103    50    98 1   
   104    51    98 1   
   105    67   100 1   
   106    68   100 1   
@<TRIPOS>SUBSTRUCTURE
     1 BQS         1 TEMP              0 ****  ****    0 ROOT
