@<TRIPOS>MOLECULE
BQT
   29    30     1     0     0
SMALL
No Charge or Current Charge


@<TRIPOS>ATOM
      1 N           30.6620   -41.1780   151.6310 n8         1 BQT      -1.032200
      2 CA          31.3780   -42.2860   150.9030 c3         1 BQT       0.095500
      3 C           30.4530   -43.3230   150.1720 c          1 BQT       0.598100
      4 O           30.8350   -44.4320   149.8260 o          1 BQT      -0.585100
      5 CB          32.4000   -41.6720   149.9240 c3         1 BQT      -0.095100
      6 CAE         24.0510   -45.6340   147.9910 c6         1 BQT      -0.065400
      7 CAF         23.6630   -44.1610   147.7240 c6         1 BQT      -0.174400
      8 CAG         25.5400   -45.8770   147.6550 c6         1 BQT      -0.002100
      9 CAK         24.5430   -43.1640   148.5010 c          1 BQT       0.494600
     10 CAM         28.1070   -43.4920   149.4030 cc         1 BQT       0.555300
     11 CAN         26.4110   -44.8370   148.3200 cc         1 BQT      -0.223300
     12 CAO         25.9760   -43.5850   148.7280 cd         1 BQT       0.223500
     13 NAH         26.9680   -42.8250   149.3600 nd         1 BQT      -0.650000
     14 NAI         29.1740   -42.8720   149.9890 ns         1 BQT      -0.459400
     15 SAJ         28.0910   -45.0900   148.6930 ss         1 BQT       0.035600
     16 H1          30.2130   -41.5560   152.4780 hn         1 BQT       0.417000
     17 H2          31.3560   -40.5240   152.0180 hn         1 BQT       0.417000
     18 H4          31.9430   -42.8590   151.6520 h1         1 BQT       0.059700
     19 H5          33.0910   -41.0010   150.4480 hc         1 BQT       0.053033
     20 H6          32.9940   -42.4600   149.4450 hc         1 BQT       0.053033
     21 H7          31.8930   -41.1010   149.1370 hc         1 BQT       0.053033
     22 H8          23.4180   -46.3070   147.3950 hc         1 BQT       0.051200
     23 H9          23.8640   -45.8800   149.0460 hc         1 BQT       0.051200
     24 H10         23.8550   -43.9710   146.6600 hc         1 BQT       0.070700
     25 H11         22.6000   -43.9540   147.9100 hc         1 BQT       0.070700
     26 H12         25.8270   -46.8900   147.9710 hc         1 BQT       0.058200
     27 H13         25.6810   -45.8470   146.5650 hc         1 BQT       0.058200
     28 H14         29.0230   -41.9400   150.3520 hn         1 BQT       0.371500
     29 OAC         24.0680   -42.1090   148.9150 o          1 BQT      -0.500100
@<TRIPOS>BOND
     1     1     2 1   
     2     1    16 1   
     3     1    17 1   
     4     2     3 1   
     5     2     5 1   
     6     2    18 1   
     7     3     4 2   
     8     3    14 1   
     9     5    19 1   
    10     5    20 1   
    11     5    21 1   
    12     6     7 1   
    13     6     8 1   
    14     6    22 1   
    15     6    23 1   
    16     7     9 1   
    17     7    24 1   
    18     7    25 1   
    19     8    11 1   
    20     8    26 1   
    21     8    27 1   
    22     9    12 1   
    23     9    29 2   
    24    10    13 2   
    25    10    14 1   
    26    10    15 1   
    27    11    12 2   
    28    11    15 1   
    29    12    13 1   
    30    14    28 1   
@<TRIPOS>SUBSTRUCTURE
     1 BQT         1 TEMP              0 ****  ****    0 ROOT
