@<TRIPOS>MOLECULE
BQT
   29    30     1     0     0
SMALL
abcg2


@<TRIPOS>ATOM
      1 N           30.6950   -41.2670   151.6430 n8         1 BQT      -1.032200
      2 CA          31.3570   -42.3520   150.9200 c3         1 BQT       0.095500
      3 C           30.3360   -43.2820   150.2730 c          1 BQT       0.598100
      4 O           30.6250   -44.4040   149.8750 o          1 BQT      -0.585100
      5 CB          32.2590   -41.7850   149.8210 c3         1 BQT      -0.095100
      6 CAE         24.1620   -45.6350   147.9340 c6         1 BQT      -0.065400
      7 CAF         23.7570   -44.1770   147.7100 c6         1 BQT      -0.174400
      8 CAG         25.6540   -45.8530   147.6630 c6         1 BQT      -0.002100
      9 CAK         24.5790   -43.1840   148.5070 c          1 BQT       0.494600
     10 CAM         28.0150   -43.3510   149.5320 cc         1 BQT       0.555300
     11 CAN         26.4420   -44.8110   148.3840 cc         1 BQT      -0.223300
     12 CAO         25.9610   -43.5920   148.7850 cd         1 BQT       0.223500
     13 NAH         26.8600   -42.7720   149.4390 nd         1 BQT      -0.650000
     14 NAI         29.0930   -42.7480   150.1340 ns         1 BQT      -0.459400
     15 SAJ         28.1040   -44.9610   148.8300 ss         1 BQT       0.035600
     16 H1          30.4030   -41.5720   152.5660 hn         1 BQT       0.417000
     17 H2          31.3320   -40.4900   151.7740 hn         1 BQT       0.417000
     18 H4          31.9610   -42.9920   151.5720 h1         1 BQT       0.059700
     19 H5          33.0540   -41.1880   150.2710 hc         1 BQT       0.053033
     20 H6          32.7130   -42.5900   149.2450 hc         1 BQT       0.053033
     21 H7          31.6820   -41.1480   149.1470 hc         1 BQT       0.053033
     22 H8          23.5710   -46.2850   147.2880 hc         1 BQT       0.051200
     23 H9          23.9440   -45.9170   148.9680 hc         1 BQT       0.051200
     24 H10         23.8970   -43.9130   146.6540 hc         1 BQT       0.070700
     25 H11         22.7050   -44.0100   147.9440 hc         1 BQT       0.070700
     26 H12         25.9630   -46.8530   147.9710 hc         1 BQT       0.058200
     27 H13         25.8560   -45.7780   146.5890 hc         1 BQT       0.058200
     28 H14         28.9710   -41.8140   150.5170 hn         1 BQT       0.371500
     29 OAC         24.1280   -42.1030   148.8580 o          1 BQT      -0.500100
@<TRIPOS>BOND
     1     1     2 1   
     2     1    16 1   
     3     1    17 1   
     4     2     3 1   
     5     2     5 1   
     6     2    18 1   
     7     3     4 2   
     8     3    14 1   
     9     5    19 1   
    10     5    20 1   
    11     5    21 1   
    12     6     7 1   
    13     6     8 1   
    14     6    22 1   
    15     6    23 1   
    16     7     9 1   
    17     7    24 1   
    18     7    25 1   
    19     8    11 1   
    20     8    26 1   
    21     8    27 1   
    22     9    12 1   
    23     9    29 2   
    24    10    13 2   
    25    10    14 1   
    26    10    15 1   
    27    11    12 2   
    28    11    15 1   
    29    12    13 1   
    30    14    28 1   
@<TRIPOS>SUBSTRUCTURE
     1 BQT         1 TEMP              0 ****  ****    0 ROOT
