@<TRIPOS>MOLECULE
BQU
   42    44     1     0     0
SMALL
No Charge or Current Charge


@<TRIPOS>ATOM
      1 CAB          6.7880    -1.9710    -1.3740 ca         1 BQU      -0.076500
      2 CAV         -4.4650    -1.9450    -0.3660 c3         1 BQU      -0.206400
      3 OAG          3.8340    -0.0620    -0.2940 os         1 BQU      -0.354100
      4 CAC          5.6480    -1.1490    -1.3950 ca         1 BQU      -0.169000
      5 CAA          7.2280    -2.5240    -0.1610 ca         1 BQU      -0.151000
      6 CAD          4.9450    -0.8760    -0.2100 ca         1 BQU       0.150100
      7 CAE          5.3900    -1.4340     1.0090 ca         1 BQU      -0.169000
      8 CAF          6.5310    -2.2570     1.0300 ca         1 BQU      -0.076500
      9 CAH          3.0440     0.2860     0.8650 c3         1 BQU       0.128300
     10 CAI          1.9100     1.1930     0.4490 cc         1 BQU       0.415700
     11 CAK          0.5260     3.0210    -0.3030 cc         1 BQU      -0.295000
     12 CAL         -0.1690     1.8870     0.0590 cd         1 BQU       0.393500
     13 CAN         -1.6430     1.7390     0.0120 ca         1 BQU      -0.193500
     14 CAO         -2.4640     2.8010    -0.4250 ca         1 BQU      -0.068000
     15 CAP         -3.8590     2.6510    -0.4680 ca         1 BQU      -0.205000
     16 CAQ         -4.4630     1.4500    -0.0780 ca         1 BQU       0.312000
     17 CAR         -3.6620     0.3740     0.3680 ca         1 BQU      -0.117300
     18 CAS         -2.2610     0.5290     0.4060 ca         1 BQU      -0.040000
     19 CAU         -4.2650    -0.9630     0.8130 c3         1 BQU      -0.024100
     20 CAW         -5.0760    -3.2610     0.1440 c          1 BQU       0.716000
     21 NAM          0.6310     0.8400     0.4940 nd         1 BQU      -0.631000
     22 NAT         -5.8280     1.3550    -0.1490 nv         1 BQU      -1.078000
     23 OAX         -4.3170    -4.1400     0.5220 o          1 BQU      -0.738000
     24 OAY         -6.2930    -3.3470     0.1980 o          1 BQU      -0.738000
     25 SAJ          2.2410     2.8120    -0.1070 ss         1 BQU      -0.020400
     26 H1           7.3280    -2.1780    -2.2960 ha         1 BQU       0.109500
     27 H2          -5.1520    -1.4460    -1.0610 hc         1 BQU       0.016200
     28 H3          -3.4660    -2.1190    -0.7830 hc         1 BQU       0.016200
     29 H4           5.3060    -0.7200    -2.3340 ha         1 BQU       0.125000
     30 H5           8.1100    -3.1610    -0.1420 ha         1 BQU       0.110000
     31 H6           4.8690    -1.2440     1.9430 ha         1 BQU       0.125000
     32 H7           6.8740    -2.6870     1.9680 ha         1 BQU       0.109500
     33 H8           2.6270    -0.6150     1.3340 h1         1 BQU       0.063700
     34 H9           3.6560     0.8100     1.6100 h1         1 BQU       0.063700
     35 H10          0.1490     3.9650    -0.6700 h4         1 BQU       0.156000
     36 H11         -2.0350     3.7490    -0.7360 ha         1 BQU       0.092000
     37 H12         -4.4710     3.4810    -0.8100 ha         1 BQU       0.097000
     38 H13         -1.6530    -0.3070     0.7450 ha         1 BQU       0.131000
     39 H14         -5.2210    -0.8070     1.3270 hc         1 BQU       0.054700
     40 H15         -3.6120    -1.4360     1.5580 hc         1 BQU       0.054700
     41 H16         -6.3480     2.0750    -0.6460 hn         1 BQU       0.455000
     42 H17         -6.2600     0.4370    -0.0810 hn         1 BQU       0.455000
@<TRIPOS>BOND
     1     1     4 ar  
     2     1     5 ar  
     3     1    26 1   
     4     2    19 1   
     5     2    20 1   
     6     2    27 1   
     7     2    28 1   
     8     3     6 1   
     9     3     9 1   
    10     4     6 ar  
    11     4    29 1   
    12     5     8 ar  
    13     5    30 1   
    14     6     7 ar  
    15     7     8 ar  
    16     7    31 1   
    17     8    32 1   
    18     9    10 1   
    19     9    33 1   
    20     9    34 1   
    21    10    21 2   
    22    10    25 1   
    23    11    12 2   
    24    11    25 1   
    25    11    35 1   
    26    12    13 1   
    27    12    21 1   
    28    13    14 ar  
    29    13    18 ar  
    30    14    15 ar  
    31    14    36 1   
    32    15    16 ar  
    33    15    37 1   
    34    16    17 ar  
    35    16    22 1   
    36    17    18 ar  
    37    17    19 1   
    38    18    38 1   
    39    19    39 1   
    40    19    40 1   
    41    20    23 1   
    42    20    24 1   
    43    22    41 1   
    44    22    42 1   
@<TRIPOS>SUBSTRUCTURE
     1 BQU         1 TEMP              0 ****  ****    0 ROOT
