@<TRIPOS>MOLECULE
BQU
   42    44     1     0     0
SMALL
bcc


@<TRIPOS>ATOM
      1 CAB          7.5090    -0.9890    -0.5930 ca         1 BQU      -0.094500
      2 CAV         -4.8530    -1.7460    -0.0310 c3         1 BQU      -0.206400
      3 OAG          4.0400    -0.0220    -0.4030 os         1 BQU      -0.330900
      4 CAC          6.3130    -0.3280    -0.8150 ca         1 BQU      -0.187000
      5 CAA          7.5810    -2.0380     0.3170 ca         1 BQU      -0.169000
      6 CAD          5.1660    -0.7170    -0.1220 ca         1 BQU       0.150100
      7 CAE          5.2270    -1.7650     0.7910 ca         1 BQU      -0.187000
      8 CAF          6.4380    -2.4170     1.0020 ca         1 BQU      -0.094500
      9 CAH          2.8550    -0.3430     0.2830 c3         1 BQU       0.105100
     10 CAI          1.8120     0.6180    -0.1780 cc         1 BQU       0.415700
     11 CAK          0.5740     2.4720    -1.0810 cc         1 BQU      -0.233400
     12 CAL         -0.1780     1.5320    -0.4350 cd         1 BQU       0.458800
     13 CAN         -1.6330     1.5460    -0.2580 ca         1 BQU      -0.193500
     14 CAO         -2.4100     2.6390    -0.6440 ca         1 BQU      -0.086000
     15 CAP         -3.7800     2.6280    -0.4780 ca         1 BQU      -0.223000
     16 CAQ         -4.4370     1.5260     0.0840 ca         1 BQU       0.173600
     17 CAR         -3.6700     0.4160     0.4850 ca         1 BQU      -0.117300
     18 CAS         -2.2960     0.4540     0.3040 ca         1 BQU      -0.058000
     19 CAU         -4.3190    -0.8150     1.0580 c3         1 BQU      -0.024100
     20 CAW         -5.5350    -3.0320     0.4700 c          1 BQU       0.926600
     21 NAM          0.5540     0.4850     0.0670 nd         1 BQU      -0.631000
     22 NAT         -5.7990     1.5700     0.2940 nv         1 BQU      -0.829200
     23 OAX         -5.9130    -3.8260    -0.4170 o          1 BQU      -0.843300
     24 OAY         -5.6600    -3.1830     1.7010 o          1 BQU      -0.843300
     25 SAJ          2.2310     2.0400    -1.0540 ss         1 BQU      -0.165300
     26 H1           8.3920    -0.6800    -1.1390 ha         1 BQU       0.127500
     27 H2          -5.5630    -1.2140    -0.6760 hc         1 BQU       0.016200
     28 H3          -4.0300    -2.0260    -0.6960 hc         1 BQU       0.016200
     29 H4           6.2570     0.4880    -1.5230 ha         1 BQU       0.143000
     30 H5           8.5170    -2.5530     0.4870 ha         1 BQU       0.128000
     31 H6           4.3550    -2.0900     1.3430 ha         1 BQU       0.143000
     32 H7           6.4750    -3.2320     1.7130 ha         1 BQU       0.127500
     33 H8           2.5240    -1.3670     0.0740 h1         1 BQU       0.063700
     34 H9           2.9850    -0.2490     1.3680 h1         1 BQU       0.063700
     35 H10          0.2480     3.3730    -1.5750 h4         1 BQU       0.174000
     36 H11         -1.9500     3.5180    -1.0780 ha         1 BQU       0.110000
     37 H12         -4.3600     3.4900    -0.7880 ha         1 BQU       0.115000
     38 H13         -1.7170    -0.4070     0.6170 ha         1 BQU       0.149000
     39 H14         -5.1240    -0.5440     1.7460 hc         1 BQU       0.054700
     40 H15         -3.5870    -1.3550     1.6620 hc         1 BQU       0.054700
     41 H16         -6.3010     2.2580    -0.2440 hn         1 BQU       0.399800
     42 H17         -6.2870     0.6910     0.3220 hn         1 BQU       0.399800
@<TRIPOS>BOND
     1     1     4 ar  
     2     1     5 ar  
     3     1    26 1   
     4     2    19 1   
     5     2    20 1   
     6     2    27 1   
     7     2    28 1   
     8     3     6 1   
     9     3     9 1   
    10     4     6 ar  
    11     4    29 1   
    12     5     8 ar  
    13     5    30 1   
    14     6     7 ar  
    15     7     8 ar  
    16     7    31 1   
    17     8    32 1   
    18     9    10 1   
    19     9    33 1   
    20     9    34 1   
    21    10    21 2   
    22    10    25 1   
    23    11    12 2   
    24    11    25 1   
    25    11    35 1   
    26    12    13 1   
    27    12    21 1   
    28    13    14 ar  
    29    13    18 ar  
    30    14    15 ar  
    31    14    36 1   
    32    15    16 ar  
    33    15    37 1   
    34    16    17 ar  
    35    16    22 1   
    36    17    18 ar  
    37    17    19 1   
    38    18    38 1   
    39    19    39 1   
    40    19    40 1   
    41    20    23 1   
    42    20    24 1   
    43    22    41 1   
    44    22    42 1   
@<TRIPOS>SUBSTRUCTURE
     1 BQU         1 TEMP              0 ****  ****    0 ROOT
