@<TRIPOS>MOLECULE
BQV
   33    34     1     0     0
SMALL
No Charge or Current Charge


@<TRIPOS>ATOM
      1 C14          5.7550     0.4190    -1.1950 cc         1 BQV      -0.072000
      2 C15          6.9670     0.7390    -0.5320 cc         1 BQV      -0.148000
      3 C16          6.7960     1.1980     0.7550 cd         1 BQV      -0.227000
      4 C18          0.7000    -2.4030    -0.2110 ca         1 BQV      -0.064000
      5 C19         -0.5950    -2.8600    -0.4970 ca         1 BQV      -0.119000
      6 C20         -1.7000    -2.0030    -0.3550 ca         1 BQV      -0.069000
      7 C05         -5.4240     1.7290    -1.2150 c3         1 BQV      -0.362100
      8 C08         -1.5200    -0.6660     0.0780 ca         1 BQV      -0.162600
      9 C09         -0.2070    -0.2210     0.3630 ca         1 BQV      -0.039000
     10 C10          0.8990    -1.0810     0.2220 ca         1 BQV      -0.086300
     11 C11          2.3020    -0.5800     0.5310 c3         1 BQV       0.097900
     12 C13          4.6680     0.6640    -0.4050 cd         1 BQV      -0.276000
     13 N03         -3.9150    -0.1880    -0.0430 ns         1 BQV      -0.585300
     14 O01         -2.5060     1.4530     0.6010 o          1 BQV      -0.555100
     15 O06         -5.3680     1.3370     1.3970 o          1 BQV      -0.522000
     16 O07         -6.4240    -0.4360    -0.0870 o          1 BQV      -0.522000
     17 S04         -5.3870     0.5740     0.1440 s6         1 BQV       1.219800
     18 S12          3.0450     0.2340    -0.9510 ss         1 BQV      -0.146000
     19 S17          5.0790     1.2360     1.2190 ss         1 BQV       0.232000
     20 H1           5.7170     0.0260    -2.2070 ha         1 BQV       0.141000
     21 H2           7.9350     0.6190    -1.0100 ha         1 BQV       0.136000
     22 H3           7.5550     1.5030     1.4650 h4         1 BQV       0.151000
     23 H4           1.5470    -3.0760    -0.3280 ha         1 BQV       0.122000
     24 H5          -0.7450    -3.8850    -0.8320 ha         1 BQV       0.123000
     25 H6          -2.6850    -2.3980    -0.5880 ha         1 BQV       0.117000
     26 H7          -5.3290     1.1530    -2.1410 h1         1 BQV       0.110033
     27 H8          -6.3820     2.2560    -1.1700 h1         1 BQV       0.110033
     28 H9          -4.5840     2.4180    -1.0850 h1         1 BQV       0.110033
     29 H10         -0.0390     0.8020     0.6940 ha         1 BQV       0.140000
     30 H11          2.2670     0.1410     1.3580 h1         1 BQV       0.074200
     31 H12          2.9430    -1.4170     0.8350 h1         1 BQV       0.074200
     32 H13         -4.0250    -1.1420    -0.3350 hn         1 BQV       0.348500
     33 C02         -2.6780     0.2980     0.2450 c          1 BQV       0.649700
@<TRIPOS>BOND
     1     1     2 1   
     2     1    12 2   
     3     1    20 1   
     4     2     3 2   
     5     2    21 1   
     6     3    19 1   
     7     3    22 1   
     8     4     5 ar  
     9     4    10 ar  
    10     4    23 1   
    11     5     6 ar  
    12     5    24 1   
    13     6     8 ar  
    14     6    25 1   
    15     7    17 1   
    16     7    26 1   
    17     7    27 1   
    18     7    28 1   
    19     8     9 ar  
    20     8    33 1   
    21     9    10 ar  
    22     9    29 1   
    23    10    11 1   
    24    11    18 1   
    25    11    30 1   
    26    11    31 1   
    27    12    18 1   
    28    12    19 1   
    29    13    17 1   
    30    13    32 1   
    31    13    33 1   
    32    14    33 2   
    33    15    17 2   
    34    16    17 2   
@<TRIPOS>SUBSTRUCTURE
     1 BQV         1 TEMP              0 ****  ****    0 ROOT
