@<TRIPOS>MOLECULE
BQV
   33    34     1     0     0
SMALL
bcc


@<TRIPOS>ATOM
      1 C14          5.6330     0.0210    -0.8790 cc         1 BQV      -0.090000
      2 C15          6.7480     0.7430    -0.3810 cc         1 BQV      -0.166000
      3 C16          6.3860     1.8870     0.2660 cd         1 BQV      -0.100100
      4 C18          0.7080    -2.5180    -0.1750 ca         1 BQV      -0.082000
      5 C19         -0.5630    -3.0120    -0.4250 ca         1 BQV      -0.137000
      6 C20         -1.6710    -2.1930    -0.2720 ca         1 BQV      -0.087000
      7 C05         -5.0180     2.1130    -0.8430 c3         1 BQV      -0.251300
      8 C08         -1.5060    -0.8720     0.1390 ca         1 BQV      -0.162600
      9 C09         -0.2280    -0.3880     0.4030 ca         1 BQV      -0.057000
     10 C10          0.8860    -1.2040     0.2510 ca         1 BQV      -0.086300
     11 C11          2.2590    -0.6630     0.5000 c3         1 BQV       0.050000
     12 C13          4.4430     0.6330    -0.6060 cd         1 BQV      -0.004200
     13 N03         -3.8090    -0.2720    -0.3130 ns         1 BQV      -0.652300
     14 O01         -2.5700     1.0470     1.0390 o          1 BQV      -0.555100
     15 O06         -5.5120     0.6930     1.3220 o          1 BQV      -0.592800
     16 O07         -6.2100    -0.2370    -0.8990 o          1 BQV      -0.592800
     17 S04         -5.2740     0.5280    -0.0970 s6         1 BQV       1.250600
     18 S12          2.8450     0.1010    -1.0630 ss         1 BQV      -0.225000
     19 S17          4.6900     2.1050     0.2620 ss         1 BQV      -0.057800
     20 H1           5.7040    -0.9130    -1.4190 ha         1 BQV       0.159000
     21 H2           7.7740     0.4230    -0.4940 ha         1 BQV       0.154000
     22 H3           7.0300     2.6120     0.7390 h4         1 BQV       0.169000
     23 H4           1.5700    -3.1620    -0.3000 ha         1 BQV       0.140000
     24 H5          -0.6930    -4.0400    -0.7350 ha         1 BQV       0.141000
     25 H6          -2.6530    -2.6110    -0.4510 ha         1 BQV       0.135000
     26 H7          -4.7490     1.9720    -1.8860 h1         1 BQV       0.110033
     27 H8          -5.9580     2.6590    -0.7680 h1         1 BQV       0.110033
     28 H9          -4.2360     2.6450    -0.3090 h1         1 BQV       0.110033
     29 H10         -0.0990     0.6360     0.7300 ha         1 BQV       0.158000
     30 H11          2.2510     0.0960     1.2810 h1         1 BQV       0.074200
     31 H12          2.9530    -1.4530     0.7820 h1         1 BQV       0.074200
     32 H13         -3.8200    -0.9890    -1.0270 hn         1 BQV       0.348500
     33 C02         -2.6500     0.0560     0.3470 c          1 BQV       0.716700
@<TRIPOS>BOND
     1     1     2 1   
     2     1    12 2   
     3     1    20 1   
     4     2     3 2   
     5     2    21 1   
     6     3    19 1   
     7     3    22 1   
     8     4     5 ar  
     9     4    10 ar  
    10     4    23 1   
    11     5     6 ar  
    12     5    24 1   
    13     6     8 ar  
    14     6    25 1   
    15     7    17 1   
    16     7    26 1   
    17     7    27 1   
    18     7    28 1   
    19     8     9 ar  
    20     8    33 1   
    21     9    10 ar  
    22     9    29 1   
    23    10    11 1   
    24    11    18 1   
    25    11    30 1   
    26    11    31 1   
    27    12    18 1   
    28    12    19 1   
    29    13    17 1   
    30    13    32 1   
    31    13    33 1   
    32    14    33 2   
    33    15    17 2   
    34    16    17 2   
@<TRIPOS>SUBSTRUCTURE
     1 BQV         1 TEMP              0 ****  ****    0 ROOT
