@<TRIPOS>MOLECULE
BQW
   34    34     1     0     0
SMALL
abcg2


@<TRIPOS>ATOM
      1 N           -3.5950    -0.0590     0.3690 nu         1 BQW      -0.878400
      2 CA          -2.3090    -0.5000    -0.1270 c3         1 BQW       0.145500
      3 C           -1.2340     0.1080     0.7670 c          1 BQW       0.601100
      4 O           -1.3980     0.2340     1.9690 o          1 BQW      -0.580100
      5 CB          -2.1460    -2.0230    -0.1330 c3         1 BQW      -0.125100
      6 CAG          3.3040     1.2540    -0.6080 c5         1 BQW       0.069600
      7 CAL         -4.7730    -0.3200    -0.2970 c2         1 BQW       0.781100
      8 CAM          4.1120    -1.0620    -0.0140 c          1 BQW       0.579100
      9 CAO          2.9040    -0.1680    -0.2120 c5         1 BQW       0.059500
     10 CAP          1.0800     0.9440     0.8010 c5         1 BQW       0.492900
     11 NAC         -5.8370    -0.5300     0.3860 n2         1 BQW      -0.880100
     12 NAD         -4.6750    -0.3390    -1.6680 nv         1 BQW      -1.068200
     13 NAH          2.1420    -0.0020     1.0020 n7         1 BQW      -0.866400
     14 NAI         -0.0940     0.4350     0.1280 ns         1 BQW      -0.536900
     15 SAK          1.8370     2.2610    -0.2210 ss         1 BQW      -0.426000
     16 H1          -3.7000    -0.1810     1.3660 hn         1 BQW       0.502000
     17 H2          -2.1630    -0.1280    -1.1430 h1         1 BQW       0.058700
     18 H3          -2.8820    -2.4740    -0.7980 hc         1 BQW       0.052033
     19 H4          -1.1550    -2.3150    -0.4830 hc         1 BQW       0.052033
     20 H5          -2.2910    -2.4290     0.8690 hc         1 BQW       0.052033
     21 H6           5.6930    -0.2460    -1.1830 hc         1 BQW       0.065033
     22 H7           5.7020    -2.0100    -1.1030 hc         1 BQW       0.065033
     23 H8           4.5250    -1.1530    -2.1260 hc         1 BQW       0.065033
     24 H9           4.1530     1.6070    -0.0240 h1         1 BQW       0.081200
     25 H10         -6.6470    -0.5910    -0.2200 hn         1 BQW       0.380400
     26 H11         -4.0030     0.2850    -2.0870 hn         1 BQW       0.453000
     27 H12         -5.5550    -0.3190    -2.1580 hn         1 BQW       0.453000
     28 H13         -0.0520     0.3260    -0.8750 hn         1 BQW       0.316500
     29 H14          3.5370     1.3430    -1.6670 h1         1 BQW       0.081200
     30 H15          2.3280    -0.6100    -1.0440 h1         1 BQW       0.044700
     31 H16          0.7580     1.3530     1.7570 h3         1 BQW       0.137700
     32 H17          1.7970    -0.8730     1.3840 hn         1 BQW       0.461000
     33 OAE          4.2810    -1.6730     1.0140 o          1 BQW      -0.489100
     34 CAA          5.0590    -1.1370    -1.1760 c3         1 BQW      -0.200100
@<TRIPOS>BOND
     1     1     2 1   
     2     1     7 1   
     3     1    16 1   
     4     2     3 1   
     5     2     5 1   
     6     2    17 1   
     7     3     4 2   
     8     3    14 1   
     9     5    18 1   
    10     5    19 1   
    11     5    20 1   
    12     6     9 1   
    13     6    15 1   
    14     6    24 1   
    15     6    29 1   
    16     7    11 2   
    17     7    12 1   
    18     8     9 1   
    19     8    33 2   
    20     8    34 1   
    21     9    13 1   
    22     9    30 1   
    23    10    13 1   
    24    10    14 1   
    25    10    15 1   
    26    10    31 1   
    27    11    25 1   
    28    12    26 1   
    29    12    27 1   
    30    13    32 1   
    31    14    28 1   
    32    21    34 1   
    33    22    34 1   
    34    23    34 1   
@<TRIPOS>SUBSTRUCTURE
     1 BQW         1 TEMP              0 ****  ****    0 ROOT
