@<TRIPOS>MOLECULE
BQW
   34    34     1     0     0
SMALL
No Charge or Current Charge


@<TRIPOS>ATOM
      1 N           -3.5450    -0.1980     0.0380 nu         1 BQW      -0.878400
      2 CA          -2.2250    -0.8910    -0.0320 c3         1 BQW       0.145500
      3 C           -1.1420    -0.2010     0.8720 c          1 BQW       0.601100
      4 O           -1.2990    -0.0330     2.0770 o          1 BQW      -0.580100
      5 CB          -2.3910    -2.3820     0.3420 c3         1 BQW      -0.125100
      6 CAG          3.0900     1.3600    -0.6410 c5         1 BQW       0.069600
      7 CAL         -4.5550    -0.4950    -0.7490 c2         1 BQW       0.781100
      8 CAM          4.2430    -0.8530    -0.1070 c          1 BQW       0.579100
      9 CAO          2.8650    -0.0900    -0.1410 c5         1 BQW       0.059500
     10 CAP          0.9860     0.9290     0.9630 c5         1 BQW       0.492900
     11 NAC         -5.6690    -0.5890    -0.2190 n2         1 BQW      -0.880100
     12 NAD         -4.3320     0.2190    -1.8110 nv         1 BQW      -1.068200
     13 NAH          2.1730     0.1000     1.1840 n7         1 BQW      -0.866400
     14 NAI         -0.0090     0.2190     0.2090 ns         1 BQW      -0.536900
     15 SAK          1.5310     2.2670    -0.1870 ss         1 BQW      -0.426000
     16 H1          -3.9060    -0.0830     0.9800 hn         1 BQW       0.502000
     17 H2          -1.8510    -0.8480    -1.0640 h1         1 BQW       0.058700
     18 H3          -3.0810    -2.8850    -0.3460 hc         1 BQW       0.052033
     19 H4          -1.4250    -2.8990     0.2860 hc         1 BQW       0.052033
     20 H5          -2.7780    -2.4900     1.3620 hc         1 BQW       0.052033
     21 H6           5.2860    -0.0580    -1.8120 hc         1 BQW       0.065033
     22 H7           5.7980    -1.7320    -1.3890 hc         1 BQW       0.065033
     23 H8           4.2230    -1.3370    -2.2130 hc         1 BQW       0.065033
     24 H9           3.9380     1.8310    -0.1270 h1         1 BQW       0.081200
     25 H10         -6.3680    -0.4790    -0.9610 hn         1 BQW       0.380400
     26 H11         -3.4450     0.6740    -1.6610 hn         1 BQW       0.453000
     27 H12         -5.0770     0.8760    -1.9870 hn         1 BQW       0.453000
     28 H13          0.0390     0.0940    -0.7910 hn         1 BQW       0.316500
     29 H14          3.2690     1.4100    -1.7240 h1         1 BQW       0.081200
     30 H15          2.2190    -0.6350    -0.8420 h1         1 BQW       0.044700
     31 H16          0.5700     1.3580     1.8920 h3         1 BQW       0.137700
     32 H17          1.8730    -0.7990     1.5820 hn         1 BQW       0.461000
     33 OAE          4.7460    -1.3180     0.9110 o          1 BQW      -0.489100
     34 CAA          4.9530    -1.0370    -1.4510 c3         1 BQW      -0.200100
@<TRIPOS>BOND
     1     1     2 1   
     2     1     7 1   
     3     1    16 1   
     4     2     3 1   
     5     2     5 1   
     6     2    17 1   
     7     3     4 2   
     8     3    14 1   
     9     5    18 1   
    10     5    19 1   
    11     5    20 1   
    12     6     9 1   
    13     6    15 1   
    14     6    24 1   
    15     6    29 1   
    16     7    11 2   
    17     7    12 1   
    18     8     9 1   
    19     8    33 2   
    20     8    34 1   
    21     9    13 1   
    22     9    30 1   
    23    10    13 1   
    24    10    14 1   
    25    10    15 1   
    26    10    31 1   
    27    11    25 1   
    28    12    26 1   
    29    12    27 1   
    30    13    32 1   
    31    14    28 1   
    32    21    34 1   
    33    22    34 1   
    34    23    34 1   
@<TRIPOS>SUBSTRUCTURE
     1 BQW         1 TEMP              0 ****  ****    0 ROOT
