@<TRIPOS>MOLECULE
BQX
   65    68     1     0     0
SMALL
No Charge or Current Charge


@<TRIPOS>ATOM
      1 C10         -6.0610     0.2190    -0.2810 c3         1 BQX      -0.058400
      2 C13         -2.5400     1.8800     0.4110 c3         1 BQX       0.108000
      3 C15         -0.4190     3.1290     0.0030 c          1 BQX       0.674100
      4 C22          3.2330     2.4100    -0.3290 c3         1 BQX       0.205800
      5 C24          4.5720     0.3040     0.2990 c3         1 BQX      -0.101400
      6 C28          7.3500    -3.0830     0.0950 ca         1 BQX      -0.101600
      7 C01         -8.6320    -2.7120    -1.5350 c          1 BQX       0.614000
      8 C03         -9.1720    -2.0470     0.6540 c5         1 BQX       0.104700
      9 C04         -8.4880    -0.8420    -0.1160 c5         1 BQX       0.096700
     10 C06         -8.1650    -2.5910     1.7240 c5         1 BQX       0.029600
     11 C08         -7.1040    -0.5510     0.5730 c5         1 BQX       0.071300
     12 C11         -4.7960     0.6520     0.4980 c3         1 BQX      -0.074400
     13 C12         -3.7980     1.4520    -0.3680 c3         1 BQX      -0.094400
     14 C23          3.8970     1.6010     0.8010 c3         1 BQX      -0.077400
     15 C25          5.2410    -0.5020     1.4310 c3         1 BQX       0.088600
     16 C27          7.1420    -1.7670     0.4250 ca         1 BQX       0.121500
     17 C30          5.3570    -3.0300     0.9220 cc         1 BQX       0.400700
     18 C32          9.2360    -1.2410    -0.3270 ca         1 BQX       0.181900
     19 C34          8.5920    -3.4330    -0.4770 ca         1 BQX       0.449900
     20 N02         -9.2210    -3.0870    -0.3770 ns         1 BQX      -0.523900
     21 N05         -8.2120    -1.4320    -1.4310 ns         1 BQX      -0.512900
     22 N14         -1.6130     2.6340    -0.4320 ns         1 BQX      -0.503900
     23 N16          0.2630     3.7730    -0.9540 ns         1 BQX      -0.631300
     24 N21          2.6230     3.6240     0.2280 n7         1 BQX      -0.881300
     25 N26          5.8810    -1.7360     0.9470 na         1 BQX      -0.280300
     26 N29          6.2480    -3.8950     0.3980 nd         1 BQX      -0.550100
     27 N31          8.0740    -0.8140     0.2240 nb         1 BQX      -0.221000
     28 N33          9.5440    -2.5110    -0.6890 nb         1 BQX      -0.302000
     29 O09         -8.5160    -3.4120    -2.5220 o          1 BQX      -0.575000
     30 O17          0.0010     2.9840     1.1370 o          1 BQX      -0.630100
     31 O19          2.3620     4.5940    -2.0760 o          1 BQX      -0.536500
     32 O20          1.4620     5.8030    -0.0390 o          1 BQX      -0.536500
     33 S07         -6.4650    -2.2060     1.1020 ss         1 BQX      -0.404000
     34 S18          1.7010     4.5610    -0.7720 s6         1 BQX       1.308900
     35 H1          -5.7500    -0.3910    -1.1370 hc         1 BQX       0.052700
     36 H2          -6.5350     1.1180    -0.6960 hc         1 BQX       0.052700
     37 H3          -2.8300     2.5060     1.2660 h1         1 BQX       0.058200
     38 H4          -2.0240     0.9900     0.7960 h1         1 BQX       0.058200
     39 H5           3.9950     2.6680    -1.0770 h1         1 BQX       0.052200
     40 H6           2.4780     1.7820    -0.8230 h1         1 BQX       0.052200
     41 H7           3.8230    -0.3270    -0.1960 hc         1 BQX       0.059200
     42 H8           5.3270     0.5580    -0.4550 hc         1 BQX       0.059200
     43 H9         -10.1590    -1.8040     1.0700 h1         1 BQX       0.071700
     44 H11         -9.1300     0.0470    -0.1790 h1         1 BQX       0.062700
     45 H13         -8.3110    -2.0720     2.6810 h1         1 BQX       0.078700
     46 H14         -8.2830    -3.6670     1.9100 h1         1 BQX       0.078700
     47 H15         -7.2860     0.0390     1.4810 h1         1 BQX       0.070700
     48 H16         -5.0960     1.2630     1.3600 hc         1 BQX       0.052200
     49 H17         -4.2910    -0.2360     0.8970 hc         1 BQX       0.052200
     50 H18         -4.2960     2.3460    -0.7630 hc         1 BQX       0.044700
     51 H19         -3.4970     0.8420    -1.2280 hc         1 BQX       0.044700
     52 H20          4.6470     2.2290     1.2970 hc         1 BQX       0.054700
     53 H21          3.1420     1.3450     1.5550 hc         1 BQX       0.054700
     54 H22          5.9980     0.1200     1.9270 h1         1 BQX       0.064700
     55 H23          4.4870    -0.7700     2.1830 h1         1 BQX       0.064700
     56 H24          4.3630    -3.2650     1.2840 h5         1 BQX       0.064800
     57 H25         10.0010    -0.4850    -0.4960 h5         1 BQX       0.047100
     58 H26         -9.5920    -4.0250    -0.2860 hn         1 BQX       0.344500
     59 H27         -7.7530    -0.9910    -2.2170 hn         1 BQX       0.336500
     60 H28         -1.8660     2.8060    -1.3960 hn         1 BQX       0.316500
     61 H29         -0.0990     3.8540    -1.8870 hn         1 BQX       0.343500
     62 H30          1.8580     3.3290     0.8440 hn         1 BQX       0.501000
     63 H31          8.2890    -5.4400    -0.4830 hn         1 BQX       0.505500
     64 H32          9.8810    -4.9500    -0.9540 hn         1 BQX       0.505500
     65 N35          8.9000    -4.7070    -0.8370 nv         1 BQX      -1.062900
@<TRIPOS>BOND
     1     1    11 1   
     2     1    12 1   
     3     1    35 1   
     4     1    36 1   
     5     2    13 1   
     6     2    22 1   
     7     2    37 1   
     8     2    38 1   
     9     3    22 1   
    10     3    23 1   
    11     3    30 2   
    12     4    14 1   
    13     4    24 1   
    14     4    39 1   
    15     4    40 1   
    16     5    14 1   
    17     5    15 1   
    18     5    41 1   
    19     5    42 1   
    20     6    16 ar  
    21     6    19 ar  
    22     6    26 1   
    23     7    20 1   
    24     7    21 1   
    25     7    29 2   
    26     8     9 1   
    27     8    10 1   
    28     8    20 1   
    29     8    43 1   
    30     9    11 1   
    31     9    21 1   
    32     9    44 1   
    33    10    33 1   
    34    10    45 1   
    35    10    46 1   
    36    11    33 1   
    37    11    47 1   
    38    12    13 1   
    39    12    48 1   
    40    12    49 1   
    41    13    50 1   
    42    13    51 1   
    43    14    52 1   
    44    14    53 1   
    45    15    25 1   
    46    15    54 1   
    47    15    55 1   
    48    16    25 1   
    49    16    27 ar  
    50    17    25 1   
    51    17    26 2   
    52    17    56 1   
    53    18    27 ar  
    54    18    28 ar  
    55    18    57 1   
    56    19    28 ar  
    57    19    65 1   
    58    20    58 1   
    59    21    59 1   
    60    22    60 1   
    61    23    34 1   
    62    23    61 1   
    63    24    34 1   
    64    24    62 1   
    65    31    34 2   
    66    32    34 2   
    67    63    65 1   
    68    64    65 1   
@<TRIPOS>SUBSTRUCTURE
     1 BQX         1 TEMP              0 ****  ****    0 ROOT
