@<TRIPOS>MOLECULE
BQX
   65    68     1     0     0
SMALL
bcc


@<TRIPOS>ATOM
      1 C10         -5.8140     0.0050    -0.5520 c3         1 BQX      -0.058400
      2 C13         -2.7990     2.2270     0.4560 c3         1 BQX       0.108000
      3 C15         -0.5750     3.2260     0.2950 c          1 BQX       0.808100
      4 C22          3.0370     2.2320     0.3610 c3         1 BQX       0.205800
      5 C24          4.6340     0.3270     0.7250 c3         1 BQX      -0.101400
      6 C28          7.1580    -3.1200    -0.0280 ca         1 BQX      -0.232200
      7 C01         -7.8430    -3.5440    -1.2000 c          1 BQX       0.823500
      8 C03         -9.0320    -2.0270     0.1330 c5         1 BQX       0.104700
      9 C04         -8.0410    -1.2470    -0.7820 c5         1 BQX       0.096700
     10 C06         -8.6500    -1.7840     1.5970 c5         1 BQX      -0.018300
     11 C08         -7.1210    -0.3970     0.1050 c5         1 BQX       0.023400
     12 C11         -4.9380     0.8990     0.3160 c3         1 BQX      -0.074400
     13 C12         -3.6840     1.3520    -0.4170 c3         1 BQX      -0.094400
     14 C23          4.1490     1.6770     1.2360 c3         1 BQX      -0.077400
     15 C25          5.7710    -0.2110     1.5820 c3         1 BQX       0.059300
     16 C27          7.0130    -1.7410     0.0240 ca         1 BQX       0.449800
     17 C30          5.9640    -2.7220     1.6620 cc         1 BQX       0.400700
     18 C32          8.2320    -1.4500    -1.7790 ca         1 BQX       0.707900
     19 C34          7.9320    -3.6250    -1.0880 ca         1 BQX       0.778200
     20 N02         -8.8390    -3.3880    -0.2940 ns         1 BQX      -0.590900
     21 N05         -7.3440    -2.3050    -1.4680 ns         1 BQX      -0.579900
     22 N14         -1.6570     2.7010    -0.3000 ns         1 BQX      -0.570900
     23 N16          0.3860     3.7000    -0.5890 ns         1 BQX      -0.698300
     24 N21          2.5960     3.5210     0.8910 n7         1 BQX      -0.826100
     25 N26          6.2440    -1.5010     1.1220 na         1 BQX      -0.251000
     26 N29          6.4930    -3.7180     1.0100 nd         1 BQX      -0.550100
     27 N31          7.5300    -0.8580    -0.8290 nb         1 BQX      -0.747000
     28 N33          8.4570    -2.7510    -1.9540 nb         1 BQX      -0.828000
     29 O09         -7.4660    -4.5960    -1.6940 o          1 BQX      -0.650500
     30 O17         -0.3980     3.2800     1.5000 o          1 BQX      -0.630100
     31 O19          2.4850     4.7520    -1.2810 o          1 BQX      -0.607300
     32 O20          1.3340     5.6410     0.7640 o          1 BQX      -0.607300
     33 S07         -6.8800    -1.4030     1.6070 ss         1 BQX      -0.308200
     34 S18          1.7380     4.5270    -0.0620 s6         1 BQX       1.450500
     35 H1          -5.2570    -0.8900    -0.8400 hc         1 BQX       0.052700
     36 H2          -6.0560     0.5340    -1.4810 hc         1 BQX       0.052700
     37 H3          -3.3780     3.0700     0.8460 h1         1 BQX       0.058200
     38 H4          -2.4460     1.6550     1.3150 h1         1 BQX       0.058200
     39 H5           3.4100     2.3830    -0.6520 h1         1 BQX       0.052200
     40 H6           2.2080     1.5200     0.3070 h1         1 BQX       0.052200
     41 H7           3.8110    -0.3930     0.7250 hc         1 BQX       0.059200
     42 H8           4.9740     0.4230    -0.3090 hc         1 BQX       0.059200
     43 H9         -10.0660    -1.7110    -0.0270 h1         1 BQX       0.071700
     44 H11         -8.5650    -0.5950    -1.4870 h1         1 BQX       0.062700
     45 H13         -9.2110    -0.9370     1.9960 h1         1 BQX       0.078700
     46 H14         -8.8540    -2.6510     2.2260 h1         1 BQX       0.078700
     47 H15         -7.6730     0.5040     0.3940 h1         1 BQX       0.070700
     48 H16         -5.5110     1.7750     0.6370 hc         1 BQX       0.052200
     49 H17         -4.6540     0.3670     1.2300 hc         1 BQX       0.052200
     50 H18         -3.9720     1.9050    -1.3180 hc         1 BQX       0.044700
     51 H19         -3.1150     0.4800    -0.7540 hc         1 BQX       0.044700
     52 H20          4.9770     2.3900     1.2560 hc         1 BQX       0.054700
     53 H21          3.7910     1.5750     2.2650 hc         1 BQX       0.054700
     54 H22          6.6130     0.4830     1.5800 h1         1 BQX       0.064700
     55 H23          5.4520    -0.3280     2.6180 h1         1 BQX       0.064700
     56 H24          5.3590    -2.8100     2.5530 h5         1 BQX       0.064800
     57 H25          8.6880    -0.7970    -2.5160 h5         1 BQX       0.047100
     58 H26         -9.2590    -4.1720     0.1750 hn         1 BQX       0.344500
     59 H27         -6.8290    -2.1400    -2.3160 hn         1 BQX       0.336500
     60 H28         -1.7800     2.8260    -1.2930 hn         1 BQX       0.316500
     61 H29          0.2850     3.6070    -1.5920 hn         1 BQX       0.343500
     62 H30          2.1990     3.4650     1.8240 hn         1 BQX       0.445800
     63 H31          7.8420    -5.6010    -0.5830 hn         1 BQX       0.450300
     64 H32          8.7700    -5.2440    -1.9910 hn         1 BQX       0.450300
     65 N35          8.1460    -4.9310    -1.2670 nv         1 BQX      -0.952500
@<TRIPOS>BOND
     1     1    11 1   
     2     1    12 1   
     3     1    35 1   
     4     1    36 1   
     5     2    13 1   
     6     2    22 1   
     7     2    37 1   
     8     2    38 1   
     9     3    22 1   
    10     3    23 1   
    11     3    30 2   
    12     4    14 1   
    13     4    24 1   
    14     4    39 1   
    15     4    40 1   
    16     5    14 1   
    17     5    15 1   
    18     5    41 1   
    19     5    42 1   
    20     6    16 ar  
    21     6    19 ar  
    22     6    26 1   
    23     7    20 1   
    24     7    21 1   
    25     7    29 2   
    26     8     9 1   
    27     8    10 1   
    28     8    20 1   
    29     8    43 1   
    30     9    11 1   
    31     9    21 1   
    32     9    44 1   
    33    10    33 1   
    34    10    45 1   
    35    10    46 1   
    36    11    33 1   
    37    11    47 1   
    38    12    13 1   
    39    12    48 1   
    40    12    49 1   
    41    13    50 1   
    42    13    51 1   
    43    14    52 1   
    44    14    53 1   
    45    15    25 1   
    46    15    54 1   
    47    15    55 1   
    48    16    25 1   
    49    16    27 ar  
    50    17    25 1   
    51    17    26 2   
    52    17    56 1   
    53    18    27 ar  
    54    18    28 ar  
    55    18    57 1   
    56    19    28 ar  
    57    19    65 1   
    58    20    58 1   
    59    21    59 1   
    60    22    60 1   
    61    23    34 1   
    62    23    61 1   
    63    24    34 1   
    64    24    62 1   
    65    31    34 2   
    66    32    34 2   
    67    63    65 1   
    68    64    65 1   
@<TRIPOS>SUBSTRUCTURE
     1 BQX         1 TEMP              0 ****  ****    0 ROOT
