@<TRIPOS>MOLECULE
BQY
   38    39     1     0     0
SMALL
bcc


@<TRIPOS>ATOM
      1 C10          4.1890     1.5620    -0.8390 ca         1 BQY      -0.115000
      2 C15         -1.2690    -1.4340     0.0980 c6         1 BQY       0.087100
      3 C17         -2.6550    -1.2190    -0.5010 c6         1 BQY       0.118100
      4 C03         -2.3220     1.2130    -0.1400 c6         1 BQY       0.157100
      5 O04         -1.0770     0.9310     0.4690 os         1 BQY      -0.401600
      6 C05         -0.4430    -0.1670    -0.1130 c6         1 BQY       0.318900
      7 O06          0.7830    -0.3480     0.5190 os         1 BQY      -0.304900
      8 C07          1.8660     0.3280     0.0510 ca         1 BQY       0.096100
      9 C08          1.8100     1.5930    -0.5090 ca         1 BQY      -0.150000
     10 C09          2.9750     2.2090    -0.9630 ca         1 BQY      -0.139000
     11 C11          4.2540     0.2930    -0.2680 ca         1 BQY      -0.198000
     12 C12          3.0990    -0.3370     0.1750 ca         1 BQY       0.118100
     13 O13          3.0500    -1.5640     0.7250 os         1 BQY      -0.306900
     14 C14          4.2600    -2.2810     0.8660 c3         1 BQY       0.123700
     15 O18         -3.5220    -2.2900    -0.2270 oh         1 BQY      -0.605800
     16 C19         -3.2890     0.0530     0.0600 c6         1 BQY       0.124100
     17 O20         -3.5770    -0.0650     1.4310 oh         1 BQY      -0.584800
     18 H101         5.1010     2.0340    -1.1800 ha         1 BQY       0.131000
     19 H151        -1.3690    -1.6040     1.1790 h1         1 BQY       0.078700
     20 H171        -2.5390    -1.0780    -1.5880 h1         1 BQY       0.046700
     21 H011        -2.2350     4.3610     0.4400 ho         1 BQY       0.408000
     22 H031        -2.1880     1.3370    -1.2260 h1         1 BQY       0.047700
     23 H051        -0.2930     0.0030    -1.1950 h2         1 BQY       0.039700
     24 H081         0.8680     2.1200    -0.5800 ha         1 BQY       0.160000
     25 H091         2.9180     3.1960    -1.4010 ha         1 BQY       0.135000
     26 H111         5.2160    -0.1950    -0.1820 ha         1 BQY       0.135000
     27 H141         4.7370    -2.4700    -0.0990 h1         1 BQY       0.039700
     28 H142         4.9710    -1.7640     1.5150 h1         1 BQY       0.039700
     29 H143         4.0020    -3.2340     1.3210 h1         1 BQY       0.039700
     30 H181        -3.1100    -3.1070    -0.5270 ho         1 BQY       0.431000
     31 H191        -4.1990     0.2700    -0.5200 h1         1 BQY       0.048700
     32 H201        -4.1450    -0.8330     1.5520 ho         1 BQY       0.423000
     33 O16         -0.6830    -2.5380    -0.5460 oh         1 BQY      -0.607800
     34 C02         -2.8370     2.5210     0.4190 c3         1 BQY       0.149400
     35 H021        -2.8980     2.4620     1.5110 h1         1 BQY       0.040200
     36 O01         -1.9710     3.5490    -0.0020 oh         1 BQY      -0.596800
     37 H022        -3.8580     2.6700     0.0440 h1         1 BQY       0.040200
     38 H161         0.0880    -2.8140    -0.0410 ho         1 BQY       0.432000
@<TRIPOS>BOND
     1     1    10 ar  
     2     1    11 ar  
     3     1    18 1   
     4     2     3 1   
     5     2     6 1   
     6     2    19 1   
     7     2    33 1   
     8     3    15 1   
     9     3    16 1   
    10     3    20 1   
    11     4     5 1   
    12     4    16 1   
    13     4    22 1   
    14     4    34 1   
    15     5     6 1   
    16     6     7 1   
    17     6    23 1   
    18     7     8 1   
    19     8     9 ar  
    20     8    12 ar  
    21     9    10 ar  
    22     9    24 1   
    23    10    25 1   
    24    11    12 ar  
    25    11    26 1   
    26    12    13 1   
    27    13    14 1   
    28    14    27 1   
    29    14    28 1   
    30    14    29 1   
    31    15    30 1   
    32    16    17 1   
    33    16    31 1   
    34    17    32 1   
    35    21    36 1   
    36    33    38 1   
    37    34    35 1   
    38    34    36 1   
    39    34    37 1   
@<TRIPOS>SUBSTRUCTURE
     1 BQY         1 TEMP              0 ****  ****    0 ROOT
