@<TRIPOS>MOLECULE
BQY
   38    39     1     0     0
SMALL
No Charge or Current Charge


@<TRIPOS>ATOM
      1 C10          4.1710     1.6500    -0.8570 ca         1 BQY      -0.097000
      2 C15         -1.5110    -1.5740    -0.1570 c6         1 BQY       0.110300
      3 C17         -2.9600    -1.1530    -0.5480 c6         1 BQY       0.141300
      4 C03         -2.2840     1.2520    -0.0660 c6         1 BQY       0.180300
      5 O04         -0.9730     0.7700     0.3340 os         1 BQY      -0.448000
      6 C05         -0.5380    -0.3790    -0.4230 c6         1 BQY       0.365300
      7 O06          0.8020    -0.7400    -0.0340 os         1 BQY      -0.328100
      8 C07          1.8920     0.0710    -0.3150 ca         1 BQY       0.096100
      9 C08          1.7710     1.2820    -1.0390 ca         1 BQY      -0.132000
     10 C09          2.9080     2.0640    -1.3050 ca         1 BQY      -0.121000
     11 C11          4.3060     0.4500    -0.1400 ca         1 BQY      -0.180000
     12 C12          3.1700    -0.3470     0.1350 ca         1 BQY       0.118100
     13 O13          3.2680    -1.5380     0.8360 os         1 BQY      -0.330100
     14 C14          4.5210    -2.0410     1.3330 c3         1 BQY       0.146900
     15 O18         -3.8780    -2.2180    -0.2400 oh         1 BQY      -0.668000
     16 C19         -3.3800     0.1600     0.1850 c6         1 BQY       0.147300
     17 O20         -3.5700    -0.1260     1.5860 oh         1 BQY      -0.707000
     18 H101         5.0470     2.2610    -1.0660 ha         1 BQY       0.113000
     19 H151        -1.4910    -1.7640     0.9270 h1         1 BQY       0.078700
     20 H171        -2.9770    -0.9550    -1.6310 h1         1 BQY       0.046700
     21 H011        -1.8350     4.3910     0.9910 ho         1 BQY       0.507000
     22 H031        -2.2570     1.4790    -1.1430 h1         1 BQY       0.047700
     23 H051        -0.5500    -0.1430    -1.4980 h2         1 BQY       0.039700
     24 H081         0.8090     1.6340    -1.3990 ha         1 BQY       0.142000
     25 H091         2.8080     2.9950    -1.8600 ha         1 BQY       0.117000
     26 H111         5.2970     0.1560     0.1920 ha         1 BQY       0.117000
     27 H141         5.2260    -2.2150     0.5100 h1         1 BQY       0.039700
     28 H142         4.9720    -1.3340     2.0410 h1         1 BQY       0.039700
     29 H143         4.3670    -2.9930     1.8560 h1         1 BQY       0.039700
     30 H181        -3.4160    -3.0380    -0.5360 ho         1 BQY       0.470000
     31 H191        -4.3250     0.5130    -0.2530 h1         1 BQY       0.048700
     32 H201        -3.9900    -1.0210     1.5950 ho         1 BQY       0.522000
     33 O16         -1.1260    -2.7810    -0.8670 oh         1 BQY      -0.730000
     34 C02         -2.5820     2.5930     0.6840 c3         1 BQY       0.172600
     35 H021        -2.6100     2.3850     1.7620 h1         1 BQY       0.040200
     36 O01         -1.6150     3.6290     0.4060 oh         1 BQY      -0.719000
     37 H022        -3.5860     2.9290     0.3910 h1         1 BQY       0.040200
     38 H161        -0.1730    -2.9410    -0.6570 ho         1 BQY       0.531000
@<TRIPOS>BOND
     1     1    10 ar  
     2     1    11 ar  
     3     1    18 1   
     4     2     3 1   
     5     2     6 1   
     6     2    19 1   
     7     2    33 1   
     8     3    15 1   
     9     3    16 1   
    10     3    20 1   
    11     4     5 1   
    12     4    16 1   
    13     4    22 1   
    14     4    34 1   
    15     5     6 1   
    16     6     7 1   
    17     6    23 1   
    18     7     8 1   
    19     8     9 ar  
    20     8    12 ar  
    21     9    10 ar  
    22     9    24 1   
    23    10    25 1   
    24    11    12 ar  
    25    11    26 1   
    26    12    13 1   
    27    13    14 1   
    28    14    27 1   
    29    14    28 1   
    30    14    29 1   
    31    15    30 1   
    32    16    17 1   
    33    16    31 1   
    34    17    32 1   
    35    21    36 1   
    36    33    38 1   
    37    34    35 1   
    38    34    36 1   
    39    34    37 1   
@<TRIPOS>SUBSTRUCTURE
     1 BQY         1 TEMP              0 ****  ****    0 ROOT
