@<TRIPOS>MOLECULE
BQZ
   45    46     1     0     0
SMALL
abcg2


@<TRIPOS>ATOM
      1 C4          -3.5570     0.5890    -0.3610 c6         1 BQZ       0.147300
      2 C5          -2.3530     1.2420     0.3050 c6         1 BQZ       0.166300
      3 C6          -2.7290     2.4960     1.0640 c3         1 BQZ       0.171600
      4 C11          2.9970     1.0440    -0.6880 c6         1 BQZ       0.121800
      5 C7           0.9370    -0.1100     0.1230 c6         1 BQZ       0.181300
      6 C8           1.7930    -1.1870     0.7900 c6         1 BQZ       0.164800
      7 C9           3.1540    -0.6080     1.1680 c6         1 BQZ       0.121800
      8 C10          3.8570    -0.0470    -0.0610 c6         1 BQZ       0.101300
      9 C12          1.6310     0.4950    -1.0920 c6         1 BQZ       0.164800
     10 C3          -3.1220    -0.7220    -1.0130 c6         1 BQZ       0.140300
     11 C1          -1.2660    -0.8400     0.6590 c6         1 BQZ       0.356300
     12 C2          -2.4250    -1.6050     0.0140 c6         1 BQZ       0.119300
     13 O1          -0.2950    -0.6360    -0.3160 os         1 BQZ      -0.441000
     14 O2          -2.0080    -2.7780    -0.6370 oh         1 BQZ      -0.708000
     15 O3          -4.2740    -1.3370    -1.5410 oh         1 BQZ      -0.676000
     16 O4          -4.5620     0.3780     0.6030 oh         1 BQZ      -0.720000
     17 O5          -1.7290     0.3540     1.2210 os         1 BQZ      -0.458000
     18 O6          -1.5480     3.1540     1.4620 oh         1 BQZ      -0.716000
     19 O8           1.9150    -2.2750    -0.0920 oh         1 BQZ      -0.706500
     20 O9           3.8990    -1.6350     1.7760 oh         1 BQZ      -0.727000
     21 O10          5.1110     0.4640     0.3500 oh         1 BQZ      -0.734000
     22 O11          3.5900     1.5730    -1.8530 oh         1 BQZ      -0.727000
     23 O12          0.8060     1.5120    -1.6030 oh         1 BQZ      -0.706500
     24 H1          -3.9090     1.2660    -1.1540 h1         1 BQZ       0.051700
     25 H2          -1.6510     1.5210    -0.4900 h1         1 BQZ       0.082700
     26 H3          -3.3360     3.1240     0.3990 h1         1 BQZ       0.035200
     27 H4          -3.3570     2.2370     1.9240 h1         1 BQZ       0.035200
     28 H5           2.8430     1.8370     0.0600 h1         1 BQZ       0.056200
     29 H6           0.7770     0.6920     0.8580 h1         1 BQZ       0.072700
     30 H7           1.2980    -1.4970     1.7230 h1         1 BQZ       0.059700
     31 H8           2.9830     0.2190     1.8770 h1         1 BQZ       0.056200
     32 H9           3.9940    -0.8530    -0.7930 h1         1 BQZ       0.066700
     33 H10          1.7860    -0.2940    -1.8430 h1         1 BQZ       0.059700
     34 H11         -2.4090    -0.4810    -1.8140 h1         1 BQZ       0.074700
     35 H12         -0.8700    -1.4150     1.5070 h2         1 BQZ       0.063700
     36 H13         -3.1380    -1.8310     0.8180 h1         1 BQZ       0.060700
     37 H14         -1.7750    -3.4370     0.0240 ho         1 BQZ       0.511000
     38 H15         -4.0420    -2.2270    -1.8270 ho         1 BQZ       0.469000
     39 H16         -5.2500    -0.1610     0.1980 ho         1 BQZ       0.520000
     40 H17         -1.8000     3.9310     1.9670 ho         1 BQZ       0.501000
     41 H18          2.5270    -2.9050     0.3030 ho         1 BQZ       0.516500
     42 H19          4.8160    -1.3430     1.8310 ho         1 BQZ       0.519500
     43 H20          5.7620     0.2850    -0.3340 ho         1 BQZ       0.514000
     44 H21          4.3340     2.1260    -1.5950 ho         1 BQZ       0.519500
     45 H22          1.2600     1.9040    -2.3570 ho         1 BQZ       0.516500
@<TRIPOS>BOND
     1     1     2 1   
     2     1    10 1   
     3     1    16 1   
     4     1    24 1   
     5     2     3 1   
     6     2    17 1   
     7     2    25 1   
     8     3    18 1   
     9     3    26 1   
    10     3    27 1   
    11     4     8 1   
    12     4     9 1   
    13     4    22 1   
    14     4    28 1   
    15     5     6 1   
    16     5     9 1   
    17     5    13 1   
    18     5    29 1   
    19     6     7 1   
    20     6    19 1   
    21     6    30 1   
    22     7     8 1   
    23     7    20 1   
    24     7    31 1   
    25     8    21 1   
    26     8    32 1   
    27     9    23 1   
    28     9    33 1   
    29    10    12 1   
    30    10    15 1   
    31    10    34 1   
    32    11    12 1   
    33    11    13 1   
    34    11    17 1   
    35    11    35 1   
    36    12    14 1   
    37    12    36 1   
    38    14    37 1   
    39    15    38 1   
    40    16    39 1   
    41    18    40 1   
    42    19    41 1   
    43    20    42 1   
    44    21    43 1   
    45    22    44 1   
    46    23    45 1   
@<TRIPOS>SUBSTRUCTURE
     1 BQZ         1 TEMP              0 ****  ****    0 ROOT
