@<TRIPOS>MOLECULE
BQZ
   45    46     1     0     0
SMALL
No Charge or Current Charge


@<TRIPOS>ATOM
      1 C4          -3.7270     0.5710    -0.1700 c6         1 BQZ       0.147300
      2 C5          -2.4090     1.2170     0.3710 c6         1 BQZ       0.166300
      3 C6          -2.6680     2.5390     1.1670 c3         1 BQZ       0.171600
      4 C11          3.0600     1.1010    -0.8950 c6         1 BQZ       0.121800
      5 C7           0.9310    -0.0650    -0.0630 c6         1 BQZ       0.181300
      6 C8           1.8140    -1.0880     0.7430 c6         1 BQZ       0.164800
      7 C9           3.2180    -0.4930     1.0880 c6         1 BQZ       0.121800
      8 C10          3.9380     0.0330    -0.1900 c6         1 BQZ       0.101300
      9 C12          1.7000     0.4760    -1.3150 c6         1 BQZ       0.164800
     10 C3          -3.3640    -0.7500    -0.9110 c6         1 BQZ       0.140300
     11 C1          -1.2790    -0.9350     0.5790 c6         1 BQZ       0.356300
     12 C2          -2.5160    -1.6980    -0.0030 c6         1 BQZ       0.119300
     13 O1          -0.3400    -0.6400    -0.4760 os         1 BQZ      -0.441000
     14 O2          -2.1170    -2.8710    -0.7560 oh         1 BQZ      -0.708000
     15 O3          -4.5610    -1.4280    -1.3440 oh         1 BQZ      -0.676000
     16 O4          -4.6790     0.2810     0.8750 oh         1 BQZ      -0.720000
     17 O5          -1.6910     0.2870     1.2290 os         1 BQZ      -0.458000
     18 O6          -1.4570     3.1680     1.6360 oh         1 BQZ      -0.716000
     19 O8           1.9870    -2.3360     0.0420 oh         1 BQZ      -0.706500
     20 O9           4.0400    -1.4940     1.7290 oh         1 BQZ      -0.727000
     21 O10          5.2230     0.5860     0.1530 oh         1 BQZ      -0.734000
     22 O11          3.7600     1.6200    -2.0390 oh         1 BQZ      -0.727000
     23 O12          0.9450     1.4620    -2.0460 oh         1 BQZ      -0.706500
     24 H1          -4.1750     1.2630    -0.9000 h1         1 BQZ       0.051700
     25 H2          -1.7690     1.4780    -0.4850 h1         1 BQZ       0.082700
     26 H3          -3.2190     3.2270     0.5120 h1         1 BQZ       0.035200
     27 H4          -3.3220     2.3070     2.0190 h1         1 BQZ       0.035200
     28 H5           2.8650     1.9140    -0.1790 h1         1 BQZ       0.056200
     29 H6           0.7250     0.7960     0.5900 h1         1 BQZ       0.072700
     30 H7           1.3080    -1.2800     1.7010 h1         1 BQZ       0.059700
     31 H8           3.0660     0.3610     1.7680 h1         1 BQZ       0.056200
     32 H9           4.0730    -0.8130    -0.8810 h1         1 BQZ       0.066700
     33 H10          1.9100    -0.3810    -1.9720 h1         1 BQZ       0.059700
     34 H11         -2.7520    -0.4830    -1.7870 h1         1 BQZ       0.074700
     35 H12         -0.7990    -1.5900     1.3210 h2         1 BQZ       0.063700
     36 H13         -3.1390    -2.0060     0.8500 h1         1 BQZ       0.060700
     37 H14         -1.2340    -2.6560    -1.1450 ho         1 BQZ       0.511000
     38 H15         -4.2700    -2.3430    -1.5690 ho         1 BQZ       0.469000
     39 H16         -5.2700    -0.4050     0.4780 ho         1 BQZ       0.520000
     40 H17         -1.7300     3.9350     2.1930 ho         1 BQZ       0.501000
     41 H18          2.8170    -2.7130     0.4240 ho         1 BQZ       0.516500
     42 H19          3.8370    -1.4740     2.6970 ho         1 BQZ       0.519500
     43 H20          5.5930    -0.0390     0.8240 ho         1 BQZ       0.514000
     44 H21          4.7080     1.6220    -1.7540 ho         1 BQZ       0.519500
     45 H22          1.6360     1.9570    -2.5500 ho         1 BQZ       0.516500
@<TRIPOS>BOND
     1     1     2 1   
     2     1    10 1   
     3     1    16 1   
     4     1    24 1   
     5     2     3 1   
     6     2    17 1   
     7     2    25 1   
     8     3    18 1   
     9     3    26 1   
    10     3    27 1   
    11     4     8 1   
    12     4     9 1   
    13     4    22 1   
    14     4    28 1   
    15     5     6 1   
    16     5     9 1   
    17     5    13 1   
    18     5    29 1   
    19     6     7 1   
    20     6    19 1   
    21     6    30 1   
    22     7     8 1   
    23     7    20 1   
    24     7    31 1   
    25     8    21 1   
    26     8    32 1   
    27     9    23 1   
    28     9    33 1   
    29    10    12 1   
    30    10    15 1   
    31    10    34 1   
    32    11    12 1   
    33    11    13 1   
    34    11    17 1   
    35    11    35 1   
    36    12    14 1   
    37    12    36 1   
    38    14    37 1   
    39    15    38 1   
    40    16    39 1   
    41    18    40 1   
    42    19    41 1   
    43    20    42 1   
    44    21    43 1   
    45    22    44 1   
    46    23    45 1   
@<TRIPOS>SUBSTRUCTURE
     1 BQZ         1 TEMP              0 ****  ****    0 ROOT
