@<TRIPOS>MOLECULE
BR0
   32    34     1     0     0
SMALL
No Charge or Current Charge


@<TRIPOS>ATOM
      1 C           -3.4740    -1.0580     0.4190 c          1 BR0       0.718000
      2 N           -1.3920     0.4560     0.0820 nu         1 BR0      -0.903200
      3 OXT         -3.9070    -2.2030     0.3770 o          1 BR0      -0.727000
      4 CA          -1.9110    -0.8270     0.6240 c6         1 BR0       0.086500
      5 CB          -1.0060    -1.9410     0.0410 c5         1 BR0      -0.042700
      6 CG           0.5410    -1.7410     0.2700 c5         1 BR0       0.017800
      7 OAA         -0.3530     4.2670    -0.8190 o          1 BR0      -0.718500
      8 OAC          3.3710    -1.5540     1.4770 o          1 BR0      -0.446500
      9 OAD         -1.8130     3.1180     0.2550 o          1 BR0      -0.718500
     10 OAF          4.3950    -0.7920    -0.2940 o          1 BR0      -0.446500
     11 CAG          1.6930     2.4880    -0.0420 ca         1 BR0      -0.056000
     12 CAH          2.6680     1.4990     0.1150 ca         1 BR0      -0.201000
     13 CAI          0.2460    -2.7390    -1.8630 c2         1 BR0      -0.234200
     14 CAK         -1.1160    -2.1940    -1.5050 c5         1 BR0      -0.040200
     15 CAM         -0.6940     3.2560    -0.2220 c          1 BR0       0.715600
     16 CAO          0.3260     2.1510    -0.0560 ca         1 BR0      -0.208600
     17 CAP          2.3100     0.1420     0.2440 ca         1 BR0      -0.114200
     18 CAQ         -0.0450     0.7910     0.0690 ca         1 BR0       0.374000
     19 NAT          3.4070    -0.8580     0.4520 no         1 BR0       0.693200
     20 CD1          1.1400    -2.4950    -0.9070 c2         1 BR0      -0.234200
     21 CD2          0.9360    -0.2380     0.1860 ca         1 BR0      -0.158300
     22 O           -4.1930    -0.0720     0.2860 o          1 BR0      -0.727000
     23 HN          -2.0030     1.2870     0.1450 hn         1 BR0       0.567000
     24 HA          -1.7640    -0.8230     1.7140 h1         1 BR0       0.022700
     25 HB          -1.3100    -2.8550     0.5640 hc         1 BR0       0.054700
     26 HG           0.8360    -2.1850     1.2270 hc         1 BR0       0.060700
     27 HAG          2.0060     3.5270    -0.1350 ha         1 BR0       0.125000
     28 HAH          3.7160     1.7910     0.1490 ha         1 BR0       0.102000
     29 HAI          0.4740    -3.2770    -2.7850 ha         1 BR0       0.152000
     30 HAK         -1.9150    -2.9050    -1.7410 hc         1 BR0       0.061200
     31 HAKA        -1.3190    -1.2760    -2.0690 hc         1 BR0       0.061200
     32 HD1          2.1770    -2.8290    -0.9690 ha         1 BR0       0.164000
@<TRIPOS>BOND
     1     1     3 1   
     2     1     4 1   
     3     1    22 1   
     4     2     4 1   
     5     2    18 1   
     6     2    23 1   
     7     4     5 1   
     8     4    24 1   
     9     5     6 1   
    10     5    14 1   
    11     5    25 1   
    12     6    20 1   
    13     6    21 1   
    14     6    26 1   
    15     7    15 1   
    16     8    19 1   
    17     9    15 1   
    18    10    19 1   
    19    11    12 ar  
    20    11    16 ar  
    21    11    27 1   
    22    12    17 ar  
    23    12    28 1   
    24    13    14 1   
    25    13    20 2   
    26    13    29 1   
    27    14    30 1   
    28    14    31 1   
    29    15    16 1   
    30    16    18 ar  
    31    17    19 1   
    32    17    21 ar  
    33    18    21 ar  
    34    20    32 1   
@<TRIPOS>SUBSTRUCTURE
     1 BR0         1 TEMP              0 ****  ****    0 ROOT
