@<TRIPOS>MOLECULE
BR0
   32    34     1     0     0
SMALL
bcc


@<TRIPOS>ATOM
      1 C           -3.3190    -1.0390     0.4150 c          1 BR0       0.928600
      2 N           -1.3580     0.4030     0.0190 nu         1 BR0      -0.709600
      3 OXT         -3.7530    -2.1470     0.7840 o          1 BR0      -0.832300
      4 CA          -1.8040    -0.8240     0.6190 c6         1 BR0       0.086500
      5 CB          -0.9800    -1.9670     0.0660 c5         1 BR0      -0.042700
      6 CG           0.5370    -1.7190     0.2280 c5         1 BR0       0.017800
      7 OAA         -0.1740     4.4060    -0.3610 o          1 BR0      -0.823800
      8 OAC          3.2030    -1.5910     1.4390 o          1 BR0      -0.256500
      9 OAD         -1.8760     2.9850    -0.2640 o          1 BR0      -0.823800
     10 OAF          4.3070    -0.7230    -0.1680 o          1 BR0      -0.256500
     11 CAG          1.6880     2.4380    -0.0350 ca         1 BR0      -0.074000
     12 CAH          2.6660     1.4820     0.1480 ca         1 BR0      -0.219000
     13 CAI          0.1540    -2.6840    -1.8920 c2         1 BR0      -0.184200
     14 CAK         -1.2050    -2.2610    -1.4260 c5         1 BR0      -0.040200
     15 CAM         -0.6540     3.2640    -0.2490 c          1 BR0       0.926200
     16 CAO          0.3380     2.1190    -0.0740 ca         1 BR0      -0.208600
     17 CAP          2.2550     0.1660     0.3010 ca         1 BR0      -0.114200
     18 CAQ         -0.0530     0.7600     0.0660 ca         1 BR0       0.235600
     19 NAT          3.3270    -0.7950     0.5370 no         1 BR0       0.313200
     20 CD1          1.0980    -2.4090    -0.9990 c2         1 BR0      -0.184200
     21 CD2          0.9310    -0.2490     0.2430 ca         1 BR0      -0.158300
     22 O           -3.9750    -0.0970    -0.0670 o          1 BR0      -0.832300
     23 HN          -2.0050     1.1850    -0.0400 hn         1 BR0       0.511800
     24 HA          -1.6380    -0.7950     1.7110 h1         1 BR0       0.022700
     25 HB          -1.2200    -2.8700     0.6290 hc         1 BR0       0.054700
     26 HG           0.8790    -2.1920     1.1490 hc         1 BR0       0.060700
     27 HAG          1.9760     3.4750    -0.1390 ha         1 BR0       0.143000
     28 HAH          3.7100     1.7560     0.2020 ha         1 BR0       0.120000
     29 HAI          0.3360    -3.1400    -2.8580 ha         1 BR0       0.102000
     30 HAK         -1.9650    -3.0310    -1.5750 hc         1 BR0       0.061200
     31 HAKA        -1.5480    -1.3780    -1.9760 hc         1 BR0       0.061200
     32 HD1          2.1510    -2.6170    -1.1420 ha         1 BR0       0.114000
@<TRIPOS>BOND
     1     1     3 1   
     2     1     4 1   
     3     1    22 1   
     4     2     4 1   
     5     2    18 1   
     6     2    23 1   
     7     4     5 1   
     8     4    24 1   
     9     5     6 1   
    10     5    14 1   
    11     5    25 1   
    12     6    20 1   
    13     6    21 1   
    14     6    26 1   
    15     7    15 1   
    16     8    19 1   
    17     9    15 1   
    18    10    19 1   
    19    11    12 ar  
    20    11    16 ar  
    21    11    27 1   
    22    12    17 ar  
    23    12    28 1   
    24    13    14 1   
    25    13    20 2   
    26    13    29 1   
    27    14    30 1   
    28    14    31 1   
    29    15    16 1   
    30    16    18 ar  
    31    17    19 1   
    32    17    21 ar  
    33    18    21 ar  
    34    20    32 1   
@<TRIPOS>SUBSTRUCTURE
     1 BR0         1 TEMP              0 ****  ****    0 ROOT
