@<TRIPOS>MOLECULE
BR1
   52    54     1     0     0
SMALL
abcg2


@<TRIPOS>ATOM
      1 C18          4.4420     0.5760    -1.5410 ca         1 BR1      -0.142000
      2 C19          5.3990    -0.4170    -1.5270 ca         1 BR1      -0.055000
      3 C20          5.2500    -1.5000    -0.6640 ca         1 BR1      -0.141300
      4 C21          6.2500    -2.5950    -0.6060 c3         1 BR1       0.145900
      5 C22          4.1210    -1.5180     0.1460 ca         1 BR1       0.360900
      6 N2           3.1960    -0.5710     0.1460 nb         1 BR1      -0.646000
      7 C17          3.3510     0.4630    -0.6770 ca         1 BR1       0.331000
      8 C16          2.3330     1.4970    -0.6500 cc         1 BR1       0.040000
      9 O2           1.2510     1.3330     0.1550 os         1 BR1      -0.217000
     10 C15          2.1880     2.6990    -1.2600 cd         1 BR1       0.256900
     11 N1           1.0180     3.2800    -0.8360 nd         1 BR1      -0.681000
     12 C14          0.5110     2.4320    -0.0060 cc         1 BR1       0.409300
     13 C1          -0.7910     2.5370     0.7290 c3         1 BR1       0.157000
     14 O1          -1.1670     3.8800     0.8600 oh         1 BR1      -0.633000
     15 C2          -1.8590     1.6770     0.0490 c3         1 BR1      -0.111400
     16 C3          -3.1550     1.6040     0.8460 c3         1 BR1      -0.072400
     17 C4          -4.2300     0.7860     0.1410 c3         1 BR1      -0.074400
     18 C5          -5.5060     0.6580     0.9620 c3         1 BR1      -0.076400
     19 C6          -6.6000    -0.1270     0.2510 c3         1 BR1      -0.073400
     20 C7          -7.8710    -0.2560     1.0940 c3         1 BR1      -0.031100
     21 C8          -8.9590    -1.0080     0.3800 ca         1 BR1      -0.077300
     22 C9          -9.7530    -0.3700    -0.5720 ca         1 BR1      -0.107500
     23 C10        -10.7350    -1.0630    -1.2660 ca         1 BR1      -0.109000
     24 C11        -10.9410    -2.4150    -1.0170 ca         1 BR1      -0.112000
     25 C12        -10.1590    -3.0620    -0.0710 ca         1 BR1      -0.109000
     26 C13         -9.1760    -2.3630     0.6190 ca         1 BR1      -0.107500
     27 H1           4.5380     1.4190    -2.2110 ha         1 BR1       0.131000
     28 H2           6.2560    -0.3550    -2.1860 ha         1 BR1       0.127000
     29 H3           5.8310    -3.5210    -0.2150 h1         1 BR1       0.081700
     30 H4           6.7130    -2.7870    -1.5710 h1         1 BR1       0.081700
     31 H6           3.9590    -2.3450     0.8310 h4         1 BR1       0.027100
     32 H7           2.8440     3.1840    -1.9650 h4         1 BR1       0.049100
     33 H8          -0.6360     2.1590     1.7460 h1         1 BR1       0.096700
     34 H9          -1.3340     4.2400    -0.0180 ho         1 BR1       0.459000
     35 H10         -2.0510     2.0750    -0.9550 hc         1 BR1       0.054200
     36 H11         -1.4640     0.6660    -0.0930 hc         1 BR1       0.054200
     37 H12         -2.9470     1.1630     1.8270 hc         1 BR1       0.046700
     38 H13         -3.5350     2.6110     1.0360 hc         1 BR1       0.046700
     39 H14         -4.4610     1.2490    -0.8240 hc         1 BR1       0.039200
     40 H15         -3.8410    -0.2130    -0.0860 hc         1 BR1       0.039200
     41 H16         -5.2750     0.1760     1.9180 hc         1 BR1       0.038700
     42 H17         -5.8820     1.6570     1.2100 hc         1 BR1       0.038700
     43 H18         -6.8430     0.3620    -0.6980 hc         1 BR1       0.042200
     44 H19         -6.2320    -1.1260    -0.0040 hc         1 BR1       0.042200
     45 H20         -7.6280    -0.7560     2.0350 hc         1 BR1       0.046200
     46 H21         -8.2270     0.7450     1.3560 hc         1 BR1       0.046200
     47 H22         -9.6010     0.6850    -0.7710 ha         1 BR1       0.110000
     48 H23        -11.3410    -0.5470    -2.0000 ha         1 BR1       0.111000
     49 H24        -11.7090    -2.9580    -1.5530 ha         1 BR1       0.111000
     50 H25        -10.3140    -4.1140     0.1330 ha         1 BR1       0.111000
     51 H26         -8.5720    -2.8780     1.3580 ha         1 BR1       0.110000
     52 BR1          7.7340    -2.1080     0.6180 br         1 BR1      -0.263000
@<TRIPOS>BOND
     1     1     2 ar  
     2     1     7 ar  
     3     1    27 1   
     4     2     3 ar  
     5     2    28 1   
     6     3     4 1   
     7     3     5 ar  
     8     4    29 1   
     9     4    30 1   
    10     4    52 1   
    11     5     6 ar  
    12     5    31 1   
    13     6     7 ar  
    14     7     8 1   
    15     8     9 1   
    16     8    10 2   
    17     9    12 1   
    18    10    11 1   
    19    10    32 1   
    20    11    12 2   
    21    12    13 1   
    22    13    14 1   
    23    13    15 1   
    24    13    33 1   
    25    14    34 1   
    26    15    16 1   
    27    15    35 1   
    28    15    36 1   
    29    16    17 1   
    30    16    37 1   
    31    16    38 1   
    32    17    18 1   
    33    17    39 1   
    34    17    40 1   
    35    18    19 1   
    36    18    41 1   
    37    18    42 1   
    38    19    20 1   
    39    19    43 1   
    40    19    44 1   
    41    20    21 1   
    42    20    45 1   
    43    20    46 1   
    44    21    22 ar  
    45    21    26 ar  
    46    22    23 ar  
    47    22    47 1   
    48    23    24 ar  
    49    23    48 1   
    50    24    25 ar  
    51    24    49 1   
    52    25    26 ar  
    53    25    50 1   
    54    26    51 1   
@<TRIPOS>SUBSTRUCTURE
     1 BR1         1 TEMP              0 ****  ****    0 ROOT
