@<TRIPOS>MOLECULE
BR1
   52    54     1     0     0
SMALL
No Charge or Current Charge


@<TRIPOS>ATOM
      1 C18          4.3030     0.3770    -1.7070 ca         1 BR1      -0.142000
      2 C19          5.3590    -0.5440    -1.7890 ca         1 BR1      -0.055000
      3 C20          5.5320    -1.4580    -0.7350 ca         1 BR1      -0.141300
      4 C21          6.6590    -2.4780    -0.7620 c3         1 BR1       0.145900
      5 C22          4.6400    -1.4070     0.3520 ca         1 BR1       0.360900
      6 N2           3.6210    -0.5200     0.4310 nb         1 BR1      -0.646000
      7 C17          3.4470     0.3610    -0.5850 ca         1 BR1       0.331000
      8 C16          2.3480     1.3240    -0.4720 cc         1 BR1       0.040000
      9 O2           1.2310     1.1120     0.2720 os         1 BR1      -0.217000
     10 C15          2.3580     2.5910    -0.9880 cd         1 BR1       0.256900
     11 N1           1.1830     3.2120    -0.6030 nd         1 BR1      -0.681000
     12 C14          0.5580     2.2900     0.1300 cc         1 BR1       0.409300
     13 C1          -0.7910     2.4610     0.8170 c3         1 BR1       0.157000
     14 O1          -1.1730     3.8520     0.8560 oh         1 BR1      -0.633000
     15 C2          -1.9110     1.6460     0.1210 c3         1 BR1      -0.111400
     16 C3          -3.2600     1.6420     0.8800 c3         1 BR1      -0.072400
     17 C4          -4.3400     0.7840     0.1850 c3         1 BR1      -0.074400
     18 C5          -5.6870     0.7790     0.9410 c3         1 BR1      -0.076400
     19 C6          -6.7660    -0.0790     0.2450 c3         1 BR1      -0.073400
     20 C7          -8.1140    -0.0870     0.9980 c3         1 BR1      -0.031100
     21 C8          -9.1590    -0.9400     0.2910 ca         1 BR1      -0.077300
     22 C9         -10.0040    -0.3680    -0.6800 ca         1 BR1      -0.107500
     23 C10        -10.9660    -1.1560    -1.3360 ca         1 BR1      -0.109000
     24 C11        -11.0880    -2.5210    -1.0250 ca         1 BR1      -0.112000
     25 C12        -10.2460    -3.0970    -0.0590 ca         1 BR1      -0.109000
     26 C13         -9.2840    -2.3090     0.5970 ca         1 BR1      -0.107500
     27 H1           4.1460     1.0900    -2.5120 ha         1 BR1       0.131000
     28 H2           6.0280    -0.5460    -2.6480 ha         1 BR1       0.127000
     29 H3           6.4400    -3.3330    -0.1080 h1         1 BR1       0.081700
     30 H4           6.8400    -2.8400    -1.7820 h1         1 BR1       0.081700
     31 H6           4.7440    -2.0960     1.1890 h4         1 BR1       0.027100
     32 H7           3.1130     3.0830    -1.5880 h4         1 BR1       0.049100
     33 H8          -0.6780     2.0760     1.8400 h1         1 BR1       0.096700
     34 H9          -0.5450     4.3080     0.2480 ho         1 BR1       0.459000
     35 H10         -2.0630     2.0340    -0.8940 hc         1 BR1       0.054200
     36 H11         -1.5710     0.6080     0.0100 hc         1 BR1       0.054200
     37 H12         -3.1000     1.2640     1.8980 hc         1 BR1       0.046700
     38 H13         -3.6290     2.6710     0.9760 hc         1 BR1       0.046700
     39 H14         -4.5000     1.1620    -0.8330 hc         1 BR1       0.039200
     40 H15         -3.9760    -0.2470     0.0910 hc         1 BR1       0.039200
     41 H16         -5.5270     0.4010     1.9580 hc         1 BR1       0.038700
     42 H17         -6.0510     1.8100     1.0350 hc         1 BR1       0.038700
     43 H18         -6.9270     0.2970    -0.7730 hc         1 BR1       0.042200
     44 H19         -6.4030    -1.1100     0.1510 hc         1 BR1       0.042200
     45 H20         -7.9540    -0.4570     2.0180 hc         1 BR1       0.046200
     46 H21         -8.4750     0.9440     1.0990 hc         1 BR1       0.046200
     47 H22         -9.9140     0.6870    -0.9290 ha         1 BR1       0.110000
     48 H23        -11.6160    -0.7090    -2.0850 ha         1 BR1       0.111000
     49 H24        -11.8320    -3.1310    -1.5330 ha         1 BR1       0.111000
     50 H25        -10.3380    -4.1540     0.1810 ha         1 BR1       0.111000
     51 H26         -8.6350    -2.7640     1.3420 ha         1 BR1       0.110000
     52 Br1          8.3630    -1.6750    -0.1180 br         1 BR1      -0.263000
@<TRIPOS>BOND
     1     1     2 ar  
     2     1     7 ar  
     3     1    27 1   
     4     2     3 ar  
     5     2    28 1   
     6     3     4 1   
     7     3     5 ar  
     8     4    29 1   
     9     4    30 1   
    10     4    52 1   
    11     5     6 ar  
    12     5    31 1   
    13     6     7 ar  
    14     7     8 1   
    15     8     9 1   
    16     8    10 2   
    17     9    12 1   
    18    10    11 1   
    19    10    32 1   
    20    11    12 2   
    21    12    13 1   
    22    13    14 1   
    23    13    15 1   
    24    13    33 1   
    25    14    34 1   
    26    15    16 1   
    27    15    35 1   
    28    15    36 1   
    29    16    17 1   
    30    16    37 1   
    31    16    38 1   
    32    17    18 1   
    33    17    39 1   
    34    17    40 1   
    35    18    19 1   
    36    18    41 1   
    37    18    42 1   
    38    19    20 1   
    39    19    43 1   
    40    19    44 1   
    41    20    21 1   
    42    20    45 1   
    43    20    46 1   
    44    21    22 ar  
    45    21    26 ar  
    46    22    23 ar  
    47    22    47 1   
    48    23    24 ar  
    49    23    48 1   
    50    24    25 ar  
    51    24    49 1   
    52    25    26 ar  
    53    25    50 1   
    54    26    51 1   
@<TRIPOS>SUBSTRUCTURE
     1 BR1         1 TEMP              0 ****  ****    0 ROOT
