@<TRIPOS>MOLECULE
BR2
   47    50     1     0     0
SMALL
No Charge or Current Charge


@<TRIPOS>ATOM
      1 C1          -0.4730    -2.5710     0.3740 c          1 BR2       0.639700
      2 C2           1.0080    -2.4020     0.1750 ca         1 BR2      -0.248600
      3 O3          -1.0210    -3.6610     0.4280 o          1 BR2      -0.549100
      4 C4           1.7110    -1.2930     0.7080 ca         1 BR2       0.203000
      5 C5           3.0830    -1.0870     0.4220 ca         1 BR2       0.173000
      6 C6           3.7680    -2.0230    -0.3670 ca         1 BR2      -0.005000
      7 C7           3.0960    -3.1550    -0.8570 ca         1 BR2      -0.165000
      8 C8           1.7310    -3.3410    -0.5920 ca         1 BR2       0.244000
      9 F9           1.1190    -4.4140    -1.1410 f          1 BR2      -0.153000
     10 F10          1.0830    -0.3960     1.5060 f          1 BR2      -0.162000
     11 N11          3.7390     0.0710     0.8590 nu         1 BR2      -0.864100
     12 N12         -1.2000    -1.4100     0.5060 ns         1 BR2      -0.500900
     13 C13         -2.6630    -1.3100     0.6780 c6         1 BR2       0.020600
     14 C14         -2.9780     0.1000     1.1530 c2         1 BR2      -0.075200
     15 C15         -3.5690     0.9450     0.2760 cc         1 BR2      -0.178000
     16 C16         -4.0770     0.5790    -0.9700 cc         1 BR2       0.413000
     17 N17         -4.0230    -0.7430    -1.3800 ne         1 BR2      -0.568700
     18 C18         -3.4010    -1.6320    -0.6430 c2         1 BR2       0.422200
     19 C19         -3.8090     2.3130     0.2850 cc         1 BR2       0.537300
     20 N20         -4.4010     2.7650    -0.8110 nd         1 BR2      -0.431000
     21 N21         -4.5770     1.6260    -1.6280 nd         1 BR2      -0.241000
     22 O22         -3.4470     3.1330     1.3230 os         1 BR2      -0.444300
     23 C23         -3.6570     4.5560     1.2350 c3         1 BR2       0.152900
     24 S24          3.8850     1.4500    -0.0850 sy         1 BR2       1.144600
     25 C25          2.2040     1.7460    -0.6550 ca         1 BR2      -0.308500
     26 C26          1.7370     1.1120    -1.8260 ca         1 BR2      -0.014000
     27 C27          0.4050     1.2890    -2.2390 ca         1 BR2      -0.135000
     28 C28         -0.4650     2.0970    -1.4890 ca         1 BR2      -0.056000
     29 C29         -0.0040     2.7280    -0.3220 ca         1 BR2      -0.135000
     30 C30          1.3270     2.5550     0.0980 ca         1 BR2      -0.014000
     31 O31          4.2810     2.4740     0.8830 o          1 BR2      -0.522000
     32 O32          4.7420     1.0320    -1.1970 o          1 BR2      -0.522000
     33 H6           4.8190    -1.8680    -0.5980 ha         1 BR2       0.155000
     34 H7           3.6290    -3.8800    -1.4670 ha         1 BR2       0.153000
     35 HN11         3.3520     0.4670     1.7080 hn         1 BR2       0.500000
     36 HN12        -0.6640    -0.5500     0.4540 hn         1 BR2       0.329500
     37 H14         -2.5930     0.4570     2.1110 ha         1 BR2       0.214000
     38 H18         -3.3830    -2.6650    -0.9800 h4         1 BR2       0.047800
     39 H23         -3.3040     5.0510     2.1490 h1         1 BR2       0.058033
     40 H23A        -3.1070     4.9820     0.3860 h1         1 BR2       0.058033
     41 H23B        -4.7220     4.7900     1.1130 h1         1 BR2       0.058033
     42 H26          2.3970     0.4720    -2.4120 ha         1 BR2       0.138000
     43 H27          0.0470     0.7980    -3.1410 ha         1 BR2       0.122500
     44 H28         -1.4940     2.2360    -1.8150 ha         1 BR2       0.125000
     45 H29         -0.6780     3.3520     0.2610 ha         1 BR2       0.122500
     46 H30          1.6660     3.0420     1.0120 ha         1 BR2       0.138000
     47 H13         -2.9850    -2.0340     1.4420 h1         1 BR2       0.124700
@<TRIPOS>BOND
     1     1     2 1   
     2     1     3 2   
     3     1    12 1   
     4     2     4 ar  
     5     2     8 ar  
     6     4     5 ar  
     7     4    10 1   
     8     5     6 ar  
     9     5    11 1   
    10     6     7 ar  
    11     6    33 1   
    12     7     8 ar  
    13     7    34 1   
    14     8     9 1   
    15    11    24 1   
    16    11    35 1   
    17    12    13 1   
    18    12    36 1   
    19    13    14 1   
    20    13    18 1   
    21    13    47 1   
    22    14    15 2   
    23    14    37 1   
    24    15    16 1   
    25    15    19 1   
    26    16    17 1   
    27    16    21 2   
    28    17    18 2   
    29    18    38 1   
    30    19    20 2   
    31    19    22 1   
    32    20    21 1   
    33    22    23 1   
    34    23    39 1   
    35    23    40 1   
    36    23    41 1   
    37    24    25 1   
    38    24    31 2   
    39    24    32 2   
    40    25    26 ar  
    41    25    30 ar  
    42    26    27 ar  
    43    26    42 1   
    44    27    28 ar  
    45    27    43 1   
    46    28    29 ar  
    47    28    44 1   
    48    29    30 ar  
    49    29    45 1   
    50    30    46 1   
@<TRIPOS>SUBSTRUCTURE
     1 BR2         1 TEMP              0 ****  ****    0 ROOT
