@<TRIPOS>MOLECULE
BR2
   47    50     1     0     0
SMALL
abcg2


@<TRIPOS>ATOM
      1 C1          -0.3820    -2.3570     0.6520 c          1 BR2       0.639700
      2 C2           1.0510    -2.3400     0.2080 ca         1 BR2      -0.248600
      3 O3          -0.8050    -3.1340     1.4800 o          1 BR2      -0.549100
      4 C4           1.9160    -1.3730     0.6810 ca         1 BR2       0.203000
      5 C5           3.2390    -1.2890     0.2700 ca         1 BR2       0.173000
      6 C6           3.7000    -2.2330    -0.6390 ca         1 BR2      -0.005000
      7 C7           2.8660    -3.2250    -1.1280 ca         1 BR2      -0.165000
      8 C8           1.5560    -3.2600    -0.6940 ca         1 BR2       0.244000
      9 F9           0.7260    -4.1920    -1.1630 f          1 BR2      -0.153000
     10 F10          1.4510    -0.4930     1.5680 f          1 BR2      -0.162000
     11 N11          4.0840    -0.2560     0.7330 nu         1 BR2      -0.864100
     12 N12         -1.1170    -1.4070     0.0410 ns         1 BR2      -0.500900
     13 C13         -2.5060    -1.1500     0.3370 c6         1 BR2       0.020600
     14 C14         -2.7140     0.3040     0.6210 c2         1 BR2      -0.075200
     15 C15         -3.6780     0.9230    -0.0560 cc         1 BR2      -0.178000
     16 C16         -4.4760     0.2350    -1.0520 cc         1 BR2       0.413000
     17 N17         -4.3040    -1.0880    -1.3940 ne         1 BR2      -0.568700
     18 C18         -3.3910    -1.7060    -0.7570 c2         1 BR2       0.422200
     19 C19         -4.2450     2.2570    -0.1300 cc         1 BR2       0.537300
     20 N20         -5.1920     2.2980    -1.0040 nd         1 BR2      -0.431000
     21 N21         -5.3360     1.0280    -1.5830 nd         1 BR2      -0.241000
     22 O22         -3.8140     3.2550     0.6030 os         1 BR2      -0.444300
     23 C23         -4.4560     4.5190     0.4190 c3         1 BR2       0.152900
     24 S24          4.1610     1.1360    -0.1890 sy         1 BR2       1.144600
     25 C25          2.5040     1.7550    -0.2560 ca         1 BR2      -0.308500
     26 C26          1.6650     1.3460    -1.2860 ca         1 BR2      -0.014000
     27 C27          0.3450     1.7750    -1.2840 ca         1 BR2      -0.135000
     28 C28         -0.1190     2.6010    -0.2690 ca         1 BR2      -0.056000
     29 C29          0.7330     3.0070     0.7500 ca         1 BR2      -0.135000
     30 C30          2.0530     2.5830     0.7640 ca         1 BR2      -0.014000
     31 O31          4.9880     2.0520     0.5730 o          1 BR2      -0.522000
     32 O32          4.5420     0.7240    -1.5260 o          1 BR2      -0.522000
     33 H6           4.7310    -2.1890    -0.9630 ha         1 BR2       0.155000
     34 H7           3.2290    -3.9580    -1.8360 ha         1 BR2       0.153000
     35 HN11         4.0380    -0.0580     1.7270 hn         1 BR2       0.500000
     36 HN12        -0.6900    -0.8640    -0.6960 hn         1 BR2       0.329500
     37 H14         -2.0840     0.7810     1.3630 ha         1 BR2       0.214000
     38 H18         -3.2120    -2.7490    -1.0040 h4         1 BR2       0.047800
     39 H23         -3.9660     5.2070     1.1010 h1         1 BR2       0.058033
     40 H23A        -4.3400     4.8700    -0.6060 h1         1 BR2       0.058033
     41 H23B        -5.5170     4.4550     0.6590 h1         1 BR2       0.058033
     42 H26          2.0270     0.7160    -2.0870 ha         1 BR2       0.138000
     43 H27         -0.3150     1.4740    -2.0870 ha         1 BR2       0.122500
     44 H28         -1.1460     2.9420    -0.2770 ha         1 BR2       0.125000
     45 H29          0.3730     3.6590     1.5340 ha         1 BR2       0.122500
     46 H30          2.7130     2.9040     1.5590 ha         1 BR2       0.138000
     47 H13         -2.7550    -1.7040     1.2520 h1         1 BR2       0.124700
@<TRIPOS>BOND
     1     1     2 1   
     2     1     3 2   
     3     1    12 1   
     4     2     4 ar  
     5     2     8 ar  
     6     4     5 ar  
     7     4    10 1   
     8     5     6 ar  
     9     5    11 1   
    10     6     7 ar  
    11     6    33 1   
    12     7     8 ar  
    13     7    34 1   
    14     8     9 1   
    15    11    24 1   
    16    11    35 1   
    17    12    13 1   
    18    12    36 1   
    19    13    14 1   
    20    13    18 1   
    21    13    47 1   
    22    14    15 2   
    23    14    37 1   
    24    15    16 1   
    25    15    19 1   
    26    16    17 1   
    27    16    21 2   
    28    17    18 2   
    29    18    38 1   
    30    19    20 2   
    31    19    22 1   
    32    20    21 1   
    33    22    23 1   
    34    23    39 1   
    35    23    40 1   
    36    23    41 1   
    37    24    25 1   
    38    24    31 2   
    39    24    32 2   
    40    25    26 ar  
    41    25    30 ar  
    42    26    27 ar  
    43    26    42 1   
    44    27    28 ar  
    45    27    43 1   
    46    28    29 ar  
    47    28    44 1   
    48    29    30 ar  
    49    29    45 1   
    50    30    46 1   
@<TRIPOS>SUBSTRUCTURE
     1 BR2         1 TEMP              0 ****  ****    0 ROOT
