@<TRIPOS>MOLECULE
BR3
   29    30     1     0     0
SMALL
bcc


@<TRIPOS>ATOM
      1 CA1         -1.9630    -0.5630     0.7080 ca         1 BR3      -0.165000
      2 CB2         -3.1180    -0.1320     1.3560 ca         1 BR3       0.175100
      3 O           -4.1280    -1.0230     1.4690 os         1 BR3      -0.308900
      4 CZ2         -5.1960    -0.7160     2.3690 c6         1 BR3       0.187100
      5 CA2         -6.3060    -1.7050     2.0930 c3         1 BR3      -0.276600
      6 P           -5.8520    -3.4780     2.2850 p5         1 BR3       1.099600
      7 OP1         -5.0270    -3.6410     3.5440 o          1 BR3      -0.828500
      8 OP2         -7.1100    -4.3010     2.1000 o          1 BR3      -0.828500
      9 CZ3         -5.6220     0.7330     2.2070 c6         1 BR3      -0.114400
     10 CE3         -4.4510     1.6540     2.5210 c6         1 BR3      -0.022100
     11 CG2         -3.2000     1.1770     1.8350 ca         1 BR3      -0.165300
     12 CD          -2.1110     2.0210     1.6460 ca         1 BR3      -0.096000
     13 CG1         -0.9460     1.6130     1.0040 ca         1 BR3      -0.139300
     14 CB1         -0.8950     0.3020     0.5360 ca         1 BR3      -0.100000
     15 CH2          0.2040     2.5610     0.8190 c3         1 BR3      -0.028800
     16 HA1         -1.9090    -1.5800     0.3370 ha         1 BR3       0.151000
     17 HZ2         -4.8330    -0.8670     3.3950 h1         1 BR3       0.065700
     18 HA21        -6.7230    -1.5420     1.0940 hc         1 BR3       0.056700
     19 HA22        -7.1170    -1.5170     2.8040 hc         1 BR3       0.056700
     20 HZ31        -6.4590     0.9390     2.8760 hc         1 BR3       0.047200
     21 HZ32        -5.9770     0.8960     1.1850 hc         1 BR3       0.047200
     22 HE31        -4.2900     1.6830     3.6030 hc         1 BR3       0.038700
     23 HE32        -4.6740     2.6790     2.2170 hc         1 BR3       0.038700
     24 HD          -2.1840     3.0410     2.0120 ha         1 BR3       0.111000
     25 HB1         -0.0060    -0.0540     0.0290 ha         1 BR3       0.117000
     26 HH21         0.5990     2.9040     1.7770 hc         1 BR3       0.027700
     27 HH22         1.0230     2.0930     0.2740 hc         1 BR3       0.027700
     28 HH23        -0.0960     3.4500     0.2620 hc         1 BR3       0.027700
     29 HP1         -5.0100    -3.6930     1.1490 hp         1 BR3      -0.204400
@<TRIPOS>BOND
     1     1     2 ar  
     2     1    14 ar  
     3     1    16 1   
     4     2     3 1   
     5     2    11 ar  
     6     3     4 1   
     7     4     5 1   
     8     4     9 1   
     9     4    17 1   
    10     5     6 1   
    11     5    18 1   
    12     5    19 1   
    13     6     7 1   
    14     6     8 1   
    15     6    29 1   
    16     9    10 1   
    17     9    20 1   
    18     9    21 1   
    19    10    11 1   
    20    10    22 1   
    21    10    23 1   
    22    11    12 ar  
    23    12    13 ar  
    24    12    24 1   
    25    13    14 ar  
    26    13    15 1   
    27    14    25 1   
    28    15    26 1   
    29    15    27 1   
    30    15    28 1   
@<TRIPOS>SUBSTRUCTURE
     1 BR3         1 TEMP              0 ****  ****    0 ROOT
