@<TRIPOS>MOLECULE
BR3
   29    30     1     0     0
SMALL
No Charge or Current Charge


@<TRIPOS>ATOM
      1 CA1         -1.9680    -0.5380     0.5740 ca         1 BR3      -0.147000
      2 CB2         -3.1080    -0.1330     1.2840 ca         1 BR3       0.175100
      3 O           -4.1580    -1.0200     1.4120 os         1 BR3      -0.332100
      4 CZ2         -5.1930    -0.7520     2.3750 c6         1 BR3       0.210300
      5 CA2         -6.3460    -1.7270     2.0760 c3         1 BR3      -0.434400
      6 P           -5.9070    -3.4790     2.3330 p5         1 BR3       1.257400
      7 OP1         -5.5650    -3.7230     3.7700 o          1 BR3      -0.828500
      8 OP2         -7.0070    -4.3640     1.8340 o          1 BR3      -0.828500
      9 CZ3         -5.6330     0.7240     2.2890 c6         1 BR3      -0.114400
     10 CE3         -4.4260     1.6390     2.5760 c6         1 BR3      -0.022100
     11 CG2         -3.1770     1.1710     1.8280 ca         1 BR3      -0.165300
     12 CD          -2.0840     2.0460     1.6720 ca         1 BR3      -0.078000
     13 CG1         -0.9340     1.6340     0.9710 ca         1 BR3      -0.139300
     14 CB1         -0.8820     0.3400     0.4180 ca         1 BR3      -0.082000
     15 CH2          0.2400     2.5870     0.8020 c3         1 BR3      -0.028800
     16 HA1         -1.9260    -1.5360     0.1480 ha         1 BR3       0.133000
     17 HZ2         -4.7980    -0.9500     3.3840 h1         1 BR3       0.065700
     18 HA21        -6.6890    -1.6270     1.0410 hc         1 BR3       0.056700
     19 HA22        -7.2020    -1.5300     2.7300 hc         1 BR3       0.056700
     20 HZ31        -6.4410     0.9300     3.0040 hc         1 BR3       0.047200
     21 HZ32        -6.0310     0.9350     1.2870 hc         1 BR3       0.047200
     22 HE31        -4.2160     1.6420     3.6550 hc         1 BR3       0.038700
     23 HE32        -4.6720     2.6750     2.3030 hc         1 BR3       0.038700
     24 HD          -2.1320     3.0480     2.0910 ha         1 BR3       0.093000
     25 HB1         -0.0020     0.0150    -0.1320 ha         1 BR3       0.099000
     26 HH21         0.3270     3.2690     1.6560 hc         1 BR3       0.027700
     27 HH22         1.1890     2.0420     0.7190 hc         1 BR3       0.027700
     28 HH23         0.1220     3.1940    -0.1030 hc         1 BR3       0.027700
     29 HP1         -4.7570    -3.5800     1.5060 hp         1 BR3      -0.204400
@<TRIPOS>BOND
     1     1     2 ar  
     2     1    14 ar  
     3     1    16 1   
     4     2     3 1   
     5     2    11 ar  
     6     3     4 1   
     7     4     5 1   
     8     4     9 1   
     9     4    17 1   
    10     5     6 1   
    11     5    18 1   
    12     5    19 1   
    13     6     7 1   
    14     6     8 1   
    15     6    29 1   
    16     9    10 1   
    17     9    20 1   
    18     9    21 1   
    19    10    11 1   
    20    10    22 1   
    21    10    23 1   
    22    11    12 ar  
    23    12    13 ar  
    24    12    24 1   
    25    13    14 ar  
    26    13    15 1   
    27    14    25 1   
    28    15    26 1   
    29    15    27 1   
    30    15    28 1   
@<TRIPOS>SUBSTRUCTURE
     1 BR3         1 TEMP              0 ****  ****    0 ROOT
