@<TRIPOS>MOLECULE
BR4
   61    62     1     0     0
SMALL
No Charge or Current Charge


@<TRIPOS>ATOM
      1 C9           0.1440     0.6840     3.8740 c3         1 BR4      -0.077400
      2 C8          -0.4360     0.1400     5.1970 c3         1 BR4      -0.072400
      3 C7           0.4310     0.4830     6.4280 c3         1 BR4      -0.035100
      4 C6          -0.1640    -0.0650     7.7180 ca         1 BR4      -0.070300
      5 C1           0.1780    -1.3560     8.1660 ca         1 BR4      -0.108000
      6 C5          -1.0680     0.7110     8.4700 ca         1 BR4      -0.108000
      7 C2          -0.3740    -1.8640     9.3550 ca         1 BR4      -0.111500
      8 C4          -1.6200     0.2030     9.6590 ca         1 BR4      -0.111500
      9 C3          -1.2730    -1.0840    10.1020 ca         1 BR4      -0.118000
     10 C13         -0.4040     1.0850    -1.2010 c          1 BR4       0.601100
     11 O1          -0.4510     2.2710    -1.4990 o          1 BR4      -0.627100
     12 C12         -1.0180     0.5370     0.0920 c3         1 BR4      -0.155400
     13 C11         -0.1460     0.8840     1.3220 c3         1 BR4      -0.071400
     14 C10         -0.7260     0.3390     2.6460 c3         1 BR4      -0.073400
     15 N1           0.1720     0.1350    -2.0140 ns         1 BR4      -0.487900
     16 C23          2.2750    -0.1820    -3.2920 c3         1 BR4      -0.065400
     17 C14          0.8410     0.4050    -3.2910 c3         1 BR4       0.096700
     18 C15         -0.0030    -0.1190    -4.4790 c3         1 BR4      -0.088400
     19 C16         -1.4090     0.5150    -4.5880 c3         1 BR4      -0.036100
     20 C17         -2.1630     0.0250    -5.8170 ca         1 BR4      -0.063300
     21 C18         -2.9230    -1.1600    -5.7570 ca         1 BR4      -0.109000
     22 C22         -2.1000     0.7460    -7.0250 ca         1 BR4      -0.109000
     23 C19         -3.6150    -1.6160    -6.8920 ca         1 BR4      -0.113000
     24 C21         -2.7930     0.2890    -8.1600 ca         1 BR4      -0.113000
     25 C20         -3.5510    -0.8920    -8.0940 ca         1 BR4      -0.123000
     26 C24          3.1950     0.3760    -2.1730 c3         1 BR4      -0.207400
     27 C25          4.6200    -0.1820    -2.3310 c          1 BR4       0.717000
     28 O2           4.8900    -1.2390    -1.7810 o          1 BR4      -0.741000
     29 OT3          5.4030     0.4310    -3.0410 o          1 BR4      -0.741000
     30 H91          1.1520     0.2760     3.7280 hc         1 BR4       0.042200
     31 H92          0.2470     1.7740     3.9480 hc         1 BR4       0.042200
     32 H81         -1.4440     0.5470     5.3450 hc         1 BR4       0.039200
     33 H82         -0.5400    -0.9500     5.1250 hc         1 BR4       0.039200
     34 H71          1.4410     0.0820     6.2790 hc         1 BR4       0.048700
     35 H72          0.5420     1.5720     6.4980 hc         1 BR4       0.048700
     36 H11          0.8720    -1.9670     7.5920 ha         1 BR4       0.112000
     37 H51         -1.3440     1.7070     8.1320 ha         1 BR4       0.112000
     38 H21         -0.1060    -2.8610     9.6970 ha         1 BR4       0.107500
     39 H41         -2.3180     0.8070    10.2350 ha         1 BR4       0.107500
     40 H31         -1.7010    -1.4770    11.0220 ha         1 BR4       0.106000
     41 H121        -2.0090     0.9860     0.2310 hc         1 BR4       0.046700
     42 H122        -1.1100    -0.5540     0.0310 hc         1 BR4       0.046700
     43 H111         0.8630     0.4770     1.1740 hc         1 BR4       0.059700
     44 H112        -0.0410     1.9740     1.3950 hc         1 BR4       0.059700
     45 H101        -1.7340     0.7470     2.7920 hc         1 BR4       0.032200
     46 H102        -0.8290    -0.7510     2.5730 hc         1 BR4       0.032200
     47 HN11         0.1530    -0.8190    -1.6760 hn         1 BR4       0.304500
     48 H231         2.7380     0.0300    -4.2640 hc         1 BR4       0.045200
     49 H232         2.2210    -1.2740    -3.2040 hc         1 BR4       0.045200
     50 H141         0.9390     1.4920    -3.4140 h1         1 BR4       0.076700
     51 H151         0.5390     0.0780    -5.4110 hc         1 BR4       0.045200
     52 H152        -0.1060    -1.2090    -4.3990 hc         1 BR4       0.045200
     53 H161        -1.9880     0.2860    -3.6840 hc         1 BR4       0.051200
     54 H162        -1.3100     1.6080    -4.6170 hc         1 BR4       0.051200
     55 H181        -2.9760    -1.7270    -4.8300 ha         1 BR4       0.112000
     56 H221        -1.5130     1.6590    -7.0860 ha         1 BR4       0.112000
     57 H191        -4.2010    -2.5320    -6.8390 ha         1 BR4       0.104000
     58 H211        -2.7400     0.8500    -9.0910 ha         1 BR4       0.104000
     59 H201        -4.0860    -1.2450    -8.9720 ha         1 BR4       0.102000
     60 H241         2.7630     0.0430    -1.2210 hc         1 BR4       0.022200
     61 H242         3.1960     1.4660    -2.2990 hc         1 BR4       0.022200
@<TRIPOS>BOND
     1     1     2 1   
     2     1    14 1   
     3     1    30 1   
     4     1    31 1   
     5     2     3 1   
     6     2    32 1   
     7     2    33 1   
     8     3     4 1   
     9     3    34 1   
    10     3    35 1   
    11     4     5 ar  
    12     4     6 ar  
    13     5     7 ar  
    14     5    36 1   
    15     6     8 ar  
    16     6    37 1   
    17     7     9 ar  
    18     7    38 1   
    19     8     9 ar  
    20     8    39 1   
    21     9    40 1   
    22    10    11 2   
    23    10    12 1   
    24    10    15 1   
    25    12    13 1   
    26    12    41 1   
    27    12    42 1   
    28    13    14 1   
    29    13    43 1   
    30    13    44 1   
    31    14    45 1   
    32    14    46 1   
    33    15    17 1   
    34    15    47 1   
    35    16    17 1   
    36    16    26 1   
    37    16    48 1   
    38    16    49 1   
    39    17    18 1   
    40    17    50 1   
    41    18    19 1   
    42    18    51 1   
    43    18    52 1   
    44    19    20 1   
    45    19    53 1   
    46    19    54 1   
    47    20    21 ar  
    48    20    22 ar  
    49    21    23 ar  
    50    21    55 1   
    51    22    24 ar  
    52    22    56 1   
    53    23    25 ar  
    54    23    57 1   
    55    24    25 ar  
    56    24    58 1   
    57    25    59 1   
    58    26    27 1   
    59    26    60 1   
    60    26    61 1   
    61    27    28 1   
    62    27    29 1   
@<TRIPOS>SUBSTRUCTURE
     1 BR4         1 TEMP              0 ****  ****    0 ROOT
