@<TRIPOS>MOLECULE
BR4
   61    62     1     0     0
SMALL
abcg2


@<TRIPOS>ATOM
      1 C9           0.1180     0.6700     3.9040 c3         1 BR4      -0.077400
      2 C8          -0.4330     0.1000     5.2030 c3         1 BR4      -0.072400
      3 C7           0.2150     0.7250     6.4400 c3         1 BR4      -0.035100
      4 C6          -0.3440     0.1660     7.7180 ca         1 BR4      -0.070300
      5 C1           0.1880    -0.9910     8.2840 ca         1 BR4      -0.108000
      6 C5          -1.4390     0.7640     8.3410 ca         1 BR4      -0.108000
      7 C2          -0.3550    -1.5360     9.4400 ca         1 BR4      -0.111500
      8 C4          -1.9860     0.2240     9.4970 ca         1 BR4      -0.111500
      9 C3          -1.4460    -0.9290    10.0520 ca         1 BR4      -0.118000
     10 C13         -0.1200     0.7270    -1.1410 c          1 BR4       0.601100
     11 O1          -0.1580     1.9460    -1.2700 o          1 BR4      -0.627100
     12 C12         -0.6110     0.0570     0.1250 c3         1 BR4      -0.155400
     13 C11          0.0260     0.6630     1.3720 c3         1 BR4      -0.071400
     14 C10         -0.5180     0.0610     2.6610 c3         1 BR4      -0.073400
     15 N1           0.3500    -0.1030    -2.0850 ns         1 BR4      -0.487900
     16 C23          2.3170    -0.2330    -3.5400 c3         1 BR4      -0.065400
     17 C14          0.9000     0.3090    -3.3640 c3         1 BR4       0.096700
     18 C15         -0.0100    -0.1170    -4.5150 c3         1 BR4      -0.088400
     19 C16         -1.4220     0.4640    -4.4250 c3         1 BR4      -0.036100
     20 C17         -2.2490     0.1030    -5.6270 ca         1 BR4      -0.063300
     21 C18         -3.0900    -1.0070    -5.6120 ca         1 BR4      -0.109000
     22 C22         -2.1590     0.8500    -6.8010 ca         1 BR4      -0.109000
     23 C19         -3.8220    -1.3650    -6.7380 ca         1 BR4      -0.113000
     24 C21         -2.8880     0.4980    -7.9290 ca         1 BR4      -0.113000
     25 C20         -3.7240    -0.6120    -7.9010 ca         1 BR4      -0.123000
     26 C24          3.2920     0.2630    -2.4860 c3         1 BR4      -0.207400
     27 C25          4.7560    -0.1720    -2.6780 c          1 BR4       0.717000
     28 O2           5.0240    -0.9110    -3.6460 o          1 BR4      -0.741000
     29 OT3          5.5680     0.2590    -1.8320 o          1 BR4      -0.741000
     30 H91          1.2020     0.5150     3.8700 hc         1 BR4       0.042200
     31 H92         -0.0310     1.7550     3.8920 hc         1 BR4       0.042200
     32 H81         -1.5160     0.2580     5.2450 hc         1 BR4       0.039200
     33 H82         -0.2820    -0.9840     5.2260 hc         1 BR4       0.039200
     34 H71          1.2950     0.5570     6.4010 hc         1 BR4       0.048700
     35 H72          0.0660     1.8080     6.4120 hc         1 BR4       0.048700
     36 H11          1.0400    -1.4710     7.8150 ha         1 BR4       0.112000
     37 H51         -1.8660     1.6650     7.9160 ha         1 BR4       0.112000
     38 H21          0.0760    -2.4330     9.8660 ha         1 BR4       0.107500
     39 H41         -2.8330     0.7070     9.9680 ha         1 BR4       0.107500
     40 H31         -1.8690    -1.3510    10.9540 ha         1 BR4       0.106000
     41 H121        -1.6960     0.1900     0.1710 hc         1 BR4       0.046700
     42 H122        -0.4300    -1.0200     0.1000 hc         1 BR4       0.046700
     43 H111         1.1110     0.5190     1.3330 hc         1 BR4       0.059700
     44 H112        -0.1410     1.7430     1.3770 hc         1 BR4       0.059700
     45 H101        -1.6030     0.2060     2.6990 hc         1 BR4       0.032200
     46 H102        -0.3560    -1.0220     2.6600 hc         1 BR4       0.032200
     47 HN11         0.3420    -1.0920    -1.8900 hn         1 BR4       0.304500
     48 H231         2.6680     0.0620    -4.5320 hc         1 BR4       0.045200
     49 H232         2.2880    -1.3270    -3.5470 hc         1 BR4       0.045200
     50 H141         0.9430     1.4000    -3.3450 h1         1 BR4       0.076700
     51 H151         0.4520     0.2060    -5.4520 hc         1 BR4       0.045200
     52 H152        -0.0640    -1.2100    -4.5600 hc         1 BR4       0.045200
     53 H161        -1.9110     0.0980    -3.5190 hc         1 BR4       0.051200
     54 H162        -1.3580     1.5510    -4.3300 hc         1 BR4       0.051200
     55 H181        -3.1740    -1.5990    -4.7070 ha         1 BR4       0.112000
     56 H221        -1.5110     1.7180    -6.8320 ha         1 BR4       0.112000
     57 H191        -4.4710    -2.2300    -6.7050 ha         1 BR4       0.104000
     58 H211        -2.8060     1.0930    -8.8300 ha         1 BR4       0.104000
     59 H201        -4.2960    -0.8860    -8.7780 ha         1 BR4       0.102000
     60 H241         2.9710    -0.0640    -1.4910 hc         1 BR4       0.022200
     61 H242         3.2620     1.3590    -2.4460 hc         1 BR4       0.022200
@<TRIPOS>BOND
     1     1     2 1   
     2     1    14 1   
     3     1    30 1   
     4     1    31 1   
     5     2     3 1   
     6     2    32 1   
     7     2    33 1   
     8     3     4 1   
     9     3    34 1   
    10     3    35 1   
    11     4     5 ar  
    12     4     6 ar  
    13     5     7 ar  
    14     5    36 1   
    15     6     8 ar  
    16     6    37 1   
    17     7     9 ar  
    18     7    38 1   
    19     8     9 ar  
    20     8    39 1   
    21     9    40 1   
    22    10    11 2   
    23    10    12 1   
    24    10    15 1   
    25    12    13 1   
    26    12    41 1   
    27    12    42 1   
    28    13    14 1   
    29    13    43 1   
    30    13    44 1   
    31    14    45 1   
    32    14    46 1   
    33    15    17 1   
    34    15    47 1   
    35    16    17 1   
    36    16    26 1   
    37    16    48 1   
    38    16    49 1   
    39    17    18 1   
    40    17    50 1   
    41    18    19 1   
    42    18    51 1   
    43    18    52 1   
    44    19    20 1   
    45    19    53 1   
    46    19    54 1   
    47    20    21 ar  
    48    20    22 ar  
    49    21    23 ar  
    50    21    55 1   
    51    22    24 ar  
    52    22    56 1   
    53    23    25 ar  
    54    23    57 1   
    55    24    25 ar  
    56    24    58 1   
    57    25    59 1   
    58    26    27 1   
    59    26    60 1   
    60    26    61 1   
    61    27    28 1   
    62    27    29 1   
@<TRIPOS>SUBSTRUCTURE
     1 BR4         1 TEMP              0 ****  ****    0 ROOT
