@<TRIPOS>MOLECULE
BR5
   18    17     1     0     0
SMALL
No Charge or Current Charge


@<TRIPOS>ATOM
      1 CA1          2.4510     2.3080     2.2360 c3         1 BR5      -0.088100
      2 CB2          1.3990     1.2570     1.8460 c3         1 BR5       0.169600
      3 O            1.8400     0.6230     0.6370 os         1 BR5      -0.452000
      4 CZ2          0.9560    -0.3870     0.1440 c3         1 BR5       0.198600
      5 CA2          1.5810    -0.9550    -1.1300 c3         1 BR5      -0.437400
      6 P            1.5760     0.2580    -2.4970 p5         1 BR5       1.261400
      7 OP1          2.4860    -0.2030    -3.5930 o          1 BR5      -0.834500
      8 OP2          0.1760     0.5060    -2.9690 o          1 BR5      -0.834500
      9 HA11         2.1520     2.8190     3.1580 hc         1 BR5       0.033033
     10 HA12         3.4260     1.8350     2.4050 hc         1 BR5       0.033033
     11 HA13         2.5580     3.0600     1.4450 hc         1 BR5       0.033033
     12 HB21         0.4290     1.7480     1.6960 h1         1 BR5       0.005700
     13 HB22         1.2980     0.5220     2.6560 h1         1 BR5       0.005700
     14 HZ21         0.8450    -1.1920     0.8830 h1         1 BR5       0.004700
     15 HZ22        -0.0390     0.0260    -0.0720 h1         1 BR5       0.004700
     16 HA21         2.6130    -1.2700    -0.9460 hc         1 BR5       0.051700
     17 HA22         1.0140    -1.8280    -1.4690 hc         1 BR5       0.051700
     18 HP1          2.1080     1.4020    -1.8440 hp         1 BR5      -0.206400
@<TRIPOS>BOND
     1     1     2 1   
     2     1     9 1   
     3     1    10 1   
     4     1    11 1   
     5     2     3 1   
     6     2    12 1   
     7     2    13 1   
     8     3     4 1   
     9     4     5 1   
    10     4    14 1   
    11     4    15 1   
    12     5     6 1   
    13     5    16 1   
    14     5    17 1   
    15     6     7 1   
    16     6     8 1   
    17     6    18 1   
@<TRIPOS>SUBSTRUCTURE
     1 BR5         1 TEMP              0 ****  ****    0 ROOT
