@<TRIPOS>MOLECULE
BR5
   18    17     1     0     0
SMALL
abcg2


@<TRIPOS>ATOM
      1 CA1          2.3440     2.3380     2.2310 c3         1 BR5      -0.088100
      2 CB2          1.3970     1.2330     1.8190 c3         1 BR5       0.169600
      3 O            1.8520     0.6540     0.6210 os         1 BR5      -0.452000
      4 CZ2          1.0260    -0.3900     0.1640 c3         1 BR5       0.198600
      5 CA2          1.5870    -0.9370    -1.1310 c3         1 BR5      -0.437400
      6 P            1.6230     0.2630    -2.5230 p5         1 BR5       1.261400
      7 OP1          2.1790    -0.4440    -3.7420 o          1 BR5      -0.834500
      8 OP2          0.2800     0.9560    -2.6070 o          1 BR5      -0.834500
      9 HA11         2.0020     2.7940     3.1600 hc         1 BR5       0.033033
     10 HA12         3.3520     1.9560     2.3970 hc         1 BR5       0.033033
     11 HA13         2.3950     3.1220     1.4730 hc         1 BR5       0.033033
     12 HB21         0.3810     1.6350     1.6930 h1         1 BR5       0.005700
     13 HB22         1.3360     0.4760     2.6150 h1         1 BR5       0.005700
     14 HZ21         0.9650    -1.1870     0.9210 h1         1 BR5       0.004700
     15 HZ22         0.0010    -0.0300     0.0020 h1         1 BR5       0.004700
     16 HA21         2.5890    -1.3470    -0.9750 hc         1 BR5       0.051700
     17 HA22         0.9600    -1.7730    -1.4570 hc         1 BR5       0.051700
     18 HP1          2.6000     1.2080    -2.0750 hp         1 BR5      -0.206400
@<TRIPOS>BOND
     1     1     2 1   
     2     1     9 1   
     3     1    10 1   
     4     1    11 1   
     5     2     3 1   
     6     2    12 1   
     7     2    13 1   
     8     3     4 1   
     9     4     5 1   
    10     4    14 1   
    11     4    15 1   
    12     5     6 1   
    13     5    16 1   
    14     5    17 1   
    15     6     7 1   
    16     6     8 1   
    17     6    18 1   
@<TRIPOS>SUBSTRUCTURE
     1 BR5         1 TEMP              0 ****  ****    0 ROOT
