@<TRIPOS>MOLECULE
BR6
   30    31     1     0     0
SMALL
abcg2


@<TRIPOS>ATOM
      1 BR          -5.6760     0.1260    -0.0490 br         1 BR6      -0.096100
      2 C1          -3.7980    -0.0640    -0.0090 ca         1 BR6      -0.023900
      3 N1           0.3460    -0.5520     0.0580 ne         1 BR6      -0.576100
      4 C2          -3.2090    -1.1690    -0.6100 ca         1 BR6      -0.077000
      5 N2           7.5620     0.8330    -0.5780 nv         1 BR6      -1.076200
      6 C3          -1.8320    -1.3080    -0.5640 ca         1 BR6      -0.113000
      7 N3           7.3500    -1.1050     0.7500 n2         1 BR6      -0.822100
      8 C4          -3.0270     0.8930     0.6330 ca         1 BR6      -0.077000
      9 C5          -1.6490     0.7510     0.6600 ca         1 BR6      -0.113000
     10 C6          -1.0320    -0.3440     0.0500 ca         1 BR6       0.139400
     11 C7           1.1390     0.4350    -0.0490 cf         1 BR6       0.501800
     12 C8           2.5900     0.2720     0.0000 ca         1 BR6      -0.147900
     13 C9           3.1900    -0.9770     0.1860 ca         1 BR6      -0.084000
     14 C10          4.5640    -1.0920     0.2190 ca         1 BR6      -0.089000
     15 C11          5.3790     0.0310     0.0560 ca         1 BR6      -0.125900
     16 C12          6.8590    -0.1300     0.0860 ce         1 BR6       0.655800
     17 C13          4.7820     1.2770    -0.1190 ca         1 BR6      -0.089000
     18 C14          3.4010     1.3950    -0.1450 ca         1 BR6      -0.084000
     19 H2          -3.8070    -1.9230    -1.1020 ha         1 BR6       0.130500
     20 HN2          7.1250     1.2910    -1.3610 hn         1 BR6       0.461500
     21 HN2A         8.5500     0.6810    -0.7010 hn         1 BR6       0.461500
     22 H3          -1.3650    -2.1720    -1.0190 ha         1 BR6       0.125000
     23 HN3          8.3630    -1.1290     0.6730 hn         1 BR6       0.372400
     24 H4          -3.4850     1.7450     1.1180 ha         1 BR6       0.130500
     25 H5          -1.0560     1.4910     1.1840 ha         1 BR6       0.125000
     26 H7           0.7810     1.4580    -0.2000 h4         1 BR6      -0.025200
     27 H9           2.5690    -1.8560     0.3010 ha         1 BR6       0.126500
     28 H10          5.0230    -2.0610     0.3610 ha         1 BR6       0.130500
     29 H13          5.3860     2.1690    -0.2190 ha         1 BR6       0.130500
     30 H14          2.9510     2.3710    -0.2800 ha         1 BR6       0.126500
@<TRIPOS>BOND
     1     1     2 1   
     2     2     4 ar  
     3     2     8 ar  
     4     3    10 1   
     5     3    11 2   
     6     4     6 ar  
     7     4    19 1   
     8     5    16 1   
     9     5    20 1   
    10     5    21 1   
    11     6    10 ar  
    12     6    22 1   
    13     7    16 2   
    14     7    23 1   
    15     8     9 ar  
    16     8    24 1   
    17     9    10 ar  
    18     9    25 1   
    19    11    12 1   
    20    11    26 1   
    21    12    13 ar  
    22    12    18 ar  
    23    13    14 ar  
    24    13    27 1   
    25    14    15 ar  
    26    14    28 1   
    27    15    16 1   
    28    15    17 ar  
    29    17    18 ar  
    30    17    29 1   
    31    18    30 1   
@<TRIPOS>SUBSTRUCTURE
     1 BR6         1 TEMP              0 ****  ****    0 ROOT
