@<TRIPOS>MOLECULE
BR6
   30    31     1     0     0
SMALL
No Charge or Current Charge


@<TRIPOS>ATOM
      1 Br          -5.7750     0.1930    -0.1460 br         1 BR6      -0.096100
      2 C1          -3.8810    -0.0290    -0.0030 ca         1 BR6      -0.023900
      3 N1           0.2950    -0.5170     0.3100 ne         1 BR6      -0.576100
      4 C2          -3.1760    -0.6980    -1.0180 ca         1 BR6      -0.077000
      5 N2           7.6840     0.6400    -0.7130 nv         1 BR6      -1.076200
      6 C3          -1.7820    -0.8600    -0.9110 ca         1 BR6      -0.113000
      7 N3           7.5160    -0.8350     0.9780 n2         1 BR6      -0.822100
      8 C4          -3.1990     0.4750     1.1170 ca         1 BR6      -0.077000
      9 C5          -1.8050     0.3110     1.2210 ca         1 BR6      -0.113000
     10 C6          -1.0950    -0.3550     0.2060 ca         1 BR6       0.139400
     11 C7           1.1180     0.3740    -0.1700 cf         1 BR6       0.501800
     12 C8           2.5910     0.2460    -0.0820 ca         1 BR6      -0.147900
     13 C9           3.2050    -0.8660     0.5340 ca         1 BR6      -0.084000
     14 C10          4.6060    -0.9610     0.6060 ca         1 BR6      -0.089000
     15 C11          5.4330     0.0430     0.0520 ca         1 BR6      -0.125900
     16 C12          6.9280    -0.0570     0.1640 ce         1 BR6       0.655800
     17 C13          4.8110     1.1660    -0.5440 ca         1 BR6      -0.089000
     18 C14          3.4100     1.2610    -0.6140 ca         1 BR6      -0.084000
     19 H2          -3.7050    -1.0890    -1.8840 ha         1 BR6       0.130500
     20 HN2          7.1840     0.9910    -1.5210 hn         1 BR6       0.461500
     21 HN2A         8.6040     0.2630    -0.9100 hn         1 BR6       0.461500
     22 H3          -1.2370    -1.3790    -1.6960 ha         1 BR6       0.125000
     23 HN3          8.5070    -0.5720     1.0070 hn         1 BR6       0.372400
     24 H4          -3.7460     0.9910     1.9030 ha         1 BR6       0.130500
     25 H5          -1.2780     0.6990     2.0880 ha         1 BR6       0.125000
     26 H7           0.7420     1.2750    -0.6670 h4         1 BR6      -0.025200
     27 H9           2.6010    -1.6620     0.9630 ha         1 BR6       0.126500
     28 H10          5.0490    -1.8290     1.0890 ha         1 BR6       0.130500
     29 H13          5.4070     1.9820    -0.9470 ha         1 BR6       0.130500
     30 H14          2.9600     2.1350    -1.0820 ha         1 BR6       0.126500
@<TRIPOS>BOND
     1     1     2 1   
     2     2     4 ar  
     3     2     8 ar  
     4     3    10 1   
     5     3    11 2   
     6     4     6 ar  
     7     4    19 1   
     8     5    16 1   
     9     5    20 1   
    10     5    21 1   
    11     6    10 ar  
    12     6    22 1   
    13     7    16 2   
    14     7    23 1   
    15     8     9 ar  
    16     8    24 1   
    17     9    10 ar  
    18     9    25 1   
    19    11    12 1   
    20    11    26 1   
    21    12    13 ar  
    22    12    18 ar  
    23    13    14 ar  
    24    13    27 1   
    25    14    15 ar  
    26    14    28 1   
    27    15    16 1   
    28    15    17 ar  
    29    17    18 ar  
    30    17    29 1   
    31    18    30 1   
@<TRIPOS>SUBSTRUCTURE
     1 BR6         1 TEMP              0 ****  ****    0 ROOT
