@<TRIPOS>MOLECULE
BR7
   34    36     1     0     0
SMALL
No Charge or Current Charge


@<TRIPOS>ATOM
      1 C01          1.9130    -1.4990    -2.4920 c3         1 BR7      -0.081100
      2 C02          1.3550    -0.7650    -1.2390 c6         1 BR7      -0.049000
      3 C03          1.9480    -1.4690     0.0790 c6         1 BR7      -0.061400
      4 C04          1.3810    -0.7290     1.3210 c6         1 BR7      -0.049000
      5 C05          1.9380    -1.3940     2.6130 c3         1 BR7      -0.081100
      6 C06          1.8940     0.7860     1.2570 c6         1 BR7      -0.060900
      7 C07          1.4310     1.5740    -0.0170 c6         1 BR7       0.174200
      8 N            2.0700     2.9030    -0.0450 n8         1 BR7      -0.991200
      9 C08          1.8060     0.7710    -1.3070 c6         1 BR7      -0.060900
     10 C09         -0.0900     1.7730     0.0300 c6         1 BR7      -0.104400
     11 C10         -0.7980    -0.2530     0.0300 c6         1 BR7       0.154000
     12 Br          -2.8050    -0.3110     0.0540 br         1 BR7      -0.298000
     13 C11         -0.2330    -0.8740    -1.2630 c6         1 BR7      -0.064400
     14 C           -0.1990    -0.9060     1.2970 c6         1 BR7      -0.064400
     15 H1           3.0080    -1.4550    -2.5260 hc         1 BR7       0.036033
     16 H2           1.6260    -2.5580    -2.4960 hc         1 BR7       0.036033
     17 H3           1.5350    -1.0510    -3.4190 hc         1 BR7       0.036033
     18 H4           1.6710    -2.5330     0.1010 hc         1 BR7       0.045200
     19 H5           3.0460    -1.4280     0.0710 hc         1 BR7       0.045200
     20 H6           3.0330    -1.3470     2.6500 hc         1 BR7       0.036033
     21 H7           1.5560    -0.8950     3.5130 hc         1 BR7       0.036033
     22 H8           1.6520    -2.4510     2.6760 hc         1 BR7       0.036033
     23 H9           1.5580     1.3190     2.1580 hc         1 BR7       0.050200
     24 H10          2.9920     0.7930     1.3030 hc         1 BR7       0.050200
     25 H12          2.5460     3.0200    -0.9460 hn         1 BR7       0.396000
     26 H13          1.3360     3.6190    -0.0680 hn         1 BR7       0.396000
     27 H14          2.8960     0.8080    -1.4440 hc         1 BR7       0.050200
     28 H15          1.3750     1.2510    -2.1970 hc         1 BR7       0.050200
     29 H16         -0.4150     2.3020     0.9360 hc         1 BR7       0.053700
     30 H17         -0.4630     2.3130    -0.8510 hc         1 BR7       0.053700
     31 H18         -0.6430    -0.3560    -2.1400 hc         1 BR7       0.057200
     32 H19         -0.5450    -1.9250    -1.3360 hc         1 BR7       0.057200
     33 H20         -0.4690    -1.9700     1.3330 hc         1 BR7       0.057200
     34 H21         -0.6370    -0.4370     2.1880 hc         1 BR7       0.057200
@<TRIPOS>BOND
     1     1     2 1   
     2     1    15 1   
     3     1    16 1   
     4     1    17 1   
     5     2     3 1   
     6     2     9 1   
     7     2    13 1   
     8     3     4 1   
     9     3    18 1   
    10     3    19 1   
    11     4     5 1   
    12     4     6 1   
    13     4    14 1   
    14     5    20 1   
    15     5    21 1   
    16     5    22 1   
    17     6     7 1   
    18     6    23 1   
    19     6    24 1   
    20     7     8 1   
    21     7     9 1   
    22     7    10 1   
    23     8    25 1   
    24     8    26 1   
    25     9    27 1   
    26     9    28 1   
    27    10    11 1   
    28    10    29 1   
    29    10    30 1   
    30    11    12 1   
    31    11    13 1   
    32    11    14 1   
    33    13    31 1   
    34    13    32 1   
    35    14    33 1   
    36    14    34 1   
@<TRIPOS>SUBSTRUCTURE
     1 BR7         1 TEMP              0 ****  ****    0 ROOT
