@<TRIPOS>MOLECULE
BR7
   34    36     1     0     0
SMALL
abcg2


@<TRIPOS>ATOM
      1 C01          1.9060    -1.5270    -2.4750 c3         1 BR7      -0.081100
      2 C02          1.4100    -0.7720    -1.2490 c6         1 BR7      -0.049000
      3 C03          1.9140    -1.4350     0.0350 c6         1 BR7      -0.061400
      4 C04          1.4130    -0.6930     1.2760 c6         1 BR7      -0.049000
      5 C05          1.9100    -1.3670     2.5480 c3         1 BR7      -0.081100
      6 C06          1.9070     0.7550     1.2120 c6         1 BR7      -0.060900
      7 C07          1.4120     1.4530    -0.0550 c6         1 BR7       0.174200
      8 N            1.9530     2.8020    -0.0960 n8         1 BR7      -0.991200
      9 C08          1.9050     0.6770    -1.2770 c6         1 BR7      -0.060900
     10 C09         -0.1320     1.4290    -0.0530 c6         1 BR7      -0.104400
     11 C10         -0.6080    -0.0130    -0.0070 c6         1 BR7       0.154000
     12 BR          -2.6150    -0.0180    -0.0050 br         1 BR7      -0.298000
     13 C11         -0.1290    -0.7710    -1.2340 c6         1 BR7      -0.064400
     14 C           -0.1260    -0.6910     1.2650 c6         1 BR7      -0.064400
     15 H1           2.9960    -1.5120    -2.5300 hc         1 BR7       0.036033
     16 H2           1.5880    -2.5710    -2.4500 hc         1 BR7       0.036033
     17 H3           1.5200    -1.0810    -3.3950 hc         1 BR7       0.036033
     18 H4           1.5870    -2.4810     0.0700 hc         1 BR7       0.045200
     19 H5           3.0100    -1.4500     0.0350 hc         1 BR7       0.045200
     20 H6           3.0010    -1.3510     2.5990 hc         1 BR7       0.036033
     21 H7           1.5270    -0.8600     3.4370 hc         1 BR7       0.036033
     22 H8           1.5910    -2.4100     2.5940 hc         1 BR7       0.036033
     23 H9           1.5580     1.3060     2.0950 hc         1 BR7       0.050200
     24 H10          3.0020     0.7810     1.2360 hc         1 BR7       0.050200
     25 H12          1.6080     3.2850    -0.9180 hn         1 BR7       0.396000
     26 H13          1.6070     3.3310     0.6980 hn         1 BR7       0.396000
     27 H14          2.9990     0.7000    -1.3040 hc         1 BR7       0.050200
     28 H15          1.5560     1.1710    -2.1920 hc         1 BR7       0.050200
     29 H16         -0.5030     1.9840     0.8150 hc         1 BR7       0.053700
     30 H17         -0.5050     1.9290    -0.9520 hc         1 BR7       0.053700
     31 H18         -0.5030    -0.2980    -2.1470 hc         1 BR7       0.057200
     32 H19         -0.4970    -1.8010    -1.2200 hc         1 BR7       0.057200
     33 H20         -0.4960    -1.7180     1.3230 hc         1 BR7       0.057200
     34 H21         -0.4960    -0.1580     2.1460 hc         1 BR7       0.057200
@<TRIPOS>BOND
     1     1     2 1   
     2     1    15 1   
     3     1    16 1   
     4     1    17 1   
     5     2     3 1   
     6     2     9 1   
     7     2    13 1   
     8     3     4 1   
     9     3    18 1   
    10     3    19 1   
    11     4     5 1   
    12     4     6 1   
    13     4    14 1   
    14     5    20 1   
    15     5    21 1   
    16     5    22 1   
    17     6     7 1   
    18     6    23 1   
    19     6    24 1   
    20     7     8 1   
    21     7     9 1   
    22     7    10 1   
    23     8    25 1   
    24     8    26 1   
    25     9    27 1   
    26     9    28 1   
    27    10    11 1   
    28    10    29 1   
    29    10    30 1   
    30    11    12 1   
    31    11    13 1   
    32    11    14 1   
    33    13    31 1   
    34    13    32 1   
    35    14    33 1   
    36    14    34 1   
@<TRIPOS>SUBSTRUCTURE
     1 BR7         1 TEMP              0 ****  ****    0 ROOT
