@<TRIPOS>MOLECULE
BR8
   13    13     1     0     0
SMALL
abcg2


@<TRIPOS>ATOM
      1 N1           1.1710    -0.6170     0.0260 ns         1 BR8      -0.478500
      2 C2           0.0190    -1.3670     0.0030 c          1 BR8       0.634000
      3 O2           0.0390    -2.5740    -0.0070 o          1 BR8      -0.527000
      4 N3          -1.1580    -0.6550    -0.0060 ns         1 BR8      -0.478500
      5 C4          -1.3000     0.7070     0.0050 c          1 BR8       0.588000
      6 O4          -2.3910     1.2250     0.0020 o          1 BR8      -0.500000
      7 C5          -0.0290     1.5040     0.0170 c6         1 BR8      -0.266400
      8 C6           1.2680     0.7490     0.0380 c          1 BR8       0.588000
      9 O8           2.3410     1.3030     0.0620 o          1 BR8      -0.500000
     10 H1           2.0350    -1.1450     0.0360 hn         1 BR8       0.351500
     11 H3          -2.0040    -1.2120    -0.0210 hn         1 BR8       0.351500
     12 H51C        -0.0280     2.1570    -0.8600 hc         1 BR8       0.117700
     13 H52C        -0.0510     2.1710     0.8830 hc         1 BR8       0.117700
@<TRIPOS>BOND
     1     1     2 1   
     2     1     8 1   
     3     1    10 1   
     4     2     3 2   
     5     2     4 1   
     6     4     5 1   
     7     4    11 1   
     8     5     6 2   
     9     5     7 1   
    10     7     8 1   
    11     7    12 1   
    12     7    13 1   
    13     8     9 2   
@<TRIPOS>SUBSTRUCTURE
     1 BR8         1 TEMP              0 ****  ****    0 ROOT
