@<TRIPOS>MOLECULE
BR8
   13    13     1     0     0
SMALL
No Charge or Current Charge


@<TRIPOS>ATOM
      1 N1           1.1490    -0.5610    -0.0460 ns         1 BR8      -0.478500
      2 C2           0.0210    -1.3030    -0.2440 c          1 BR8       0.634000
      3 O2           0.0430    -2.4940    -0.4790 o          1 BR8      -0.527000
      4 N3          -1.1360    -0.5980    -0.0780 ns         1 BR8      -0.478500
      5 C4          -1.2320     0.7270     0.2310 c          1 BR8       0.588000
      6 O4          -2.1600     1.1900     0.8700 o          1 BR8      -0.500000
      7 C5          -0.0250     1.5200    -0.1940 c6         1 BR8      -0.266400
      8 C6           1.1940     0.7660     0.2650 c          1 BR8       0.588000
      9 O8           2.0890     1.2580     0.9290 o          1 BR8      -0.500000
     10 H1           2.0060    -1.0820     0.0630 hn         1 BR8       0.351500
     11 H3          -1.9790    -1.1460     0.0080 hn         1 BR8       0.351500
     12 H51C        -0.0090     1.4060    -1.2850 hc         1 BR8       0.117700
     13 H52C        -0.0470     2.5630     0.1380 hc         1 BR8       0.117700
@<TRIPOS>BOND
     1     1     2 1   
     2     1     8 1   
     3     1    10 1   
     4     2     3 2   
     5     2     4 1   
     6     4     5 1   
     7     4    11 1   
     8     5     6 2   
     9     5     7 1   
    10     7     8 1   
    11     7    12 1   
    12     7    13 1   
    13     8     9 2   
@<TRIPOS>SUBSTRUCTURE
     1 BR8         1 TEMP              0 ****  ****    0 ROOT
