@<TRIPOS>MOLECULE
BR9
   15    15     1     0     0
SMALL
abcg2


@<TRIPOS>ATOM
      1 C2           0.3080    -0.1330    -0.0430 ca         1 BR9      -0.090900
      2 C1          -0.5240     0.9860    -0.0850 ca         1 BR9      -0.093000
      3 N           -2.8000     1.8510    -0.1090 nv         1 BR9      -1.056000
      4 C           -1.8930     0.8070    -0.0360 ca         1 BR9       0.174000
      5 BR           2.1810     0.0800    -0.1120 br         1 BR9      -0.089100
      6 C3          -0.2450    -1.3880     0.0630 ca         1 BR9       0.379900
      7 N1          -1.5650    -1.5670     0.0960 nb         1 BR9      -0.724000
      8 C4          -2.3740    -0.5280     0.0370 ca         1 BR9       0.562900
      9 N2          -3.7270    -0.7470     0.0990 nv         1 BR9      -1.039900
     10 H1          -0.1140     1.9860    -0.1450 ha         1 BR9       0.130000
     11 H2          -2.3800     2.7660    -0.0420 hn         1 BR9       0.441500
     12 H3          -3.5680     1.7790     0.5440 hn         1 BR9       0.441500
     13 H4           0.3700    -2.2800     0.1130 h4         1 BR9       0.035100
     14 H5          -4.3060    -0.1030    -0.4190 hn         1 BR9       0.464500
     15 H6          -3.9990    -1.7070    -0.0480 hn         1 BR9       0.464500
@<TRIPOS>BOND
     1     1     2 ar  
     2     1     5 1   
     3     1     6 ar  
     4     2     4 ar  
     5     2    10 1   
     6     3     4 1   
     7     3    11 1   
     8     3    12 1   
     9     4     8 ar  
    10     6     7 ar  
    11     6    13 1   
    12     7     8 ar  
    13     8     9 1   
    14     9    14 1   
    15     9    15 1   
@<TRIPOS>SUBSTRUCTURE
     1 BR9         1 TEMP              0 ****  ****    0 ROOT
