@<TRIPOS>MOLECULE
BR9
   15    15     1     0     0
SMALL
No Charge or Current Charge


@<TRIPOS>ATOM
      1 C2           0.3020    -0.1330    -0.0450 ca         1 BR9      -0.090900
      2 C1          -0.5130     1.0130    -0.0680 ca         1 BR9      -0.093000
      3 N           -2.7270     1.9820    -0.0210 nv         1 BR9      -1.056000
      4 C           -1.9080     0.8470    -0.0080 ca         1 BR9       0.174000
      5 Br           2.2070     0.0460    -0.1230 br         1 BR9      -0.089100
      6 C3          -0.2900    -1.4120     0.0350 ca         1 BR9       0.379900
      7 N1          -1.6300    -1.6040     0.0900 nb         1 BR9      -0.724000
      8 C4          -2.3930    -0.5100     0.0700 ca         1 BR9       0.562900
      9 N2          -3.6960    -0.8690     0.1080 nv         1 BR9      -1.039900
     10 H1          -0.0710     2.0040    -0.1290 ha         1 BR9       0.130000
     11 H2          -2.3070     2.9090     0.0510 hn         1 BR9       0.441500
     12 H3          -3.7060     1.9040     0.2550 hn         1 BR9       0.441500
     13 H4           0.3290    -2.3080     0.0530 h4         1 BR9       0.035100
     14 H5          -4.3590    -0.2170    -0.2950 hn         1 BR9       0.464500
     15 H6          -3.8760    -1.8510    -0.0600 hn         1 BR9       0.464500
@<TRIPOS>BOND
     1     1     2 ar  
     2     1     5 1   
     3     1     6 ar  
     4     2     4 ar  
     5     2    10 1   
     6     3     4 1   
     7     3    11 1   
     8     3    12 1   
     9     4     8 ar  
    10     6     7 ar  
    11     6    13 1   
    12     7     8 ar  
    13     8     9 1   
    14     9    14 1   
    15     9    15 1   
@<TRIPOS>SUBSTRUCTURE
     1 BR9         1 TEMP              0 ****  ****    0 ROOT
