@<TRIPOS>MOLECULE
BRA
   87    92     1     0     0
SMALL
bcc


@<TRIPOS>ATOM
      1 C40          6.6400     7.1060     0.9300 c5         1 BRA       0.157800
      2 C41          8.0630     7.5960     0.6770 c5         1 BRA      -0.079400
      3 C42          8.8680     6.3010     0.4470 c5         1 BRA      -0.079400
      4 C43          7.8170     5.1850     0.4710 c5         1 BRA       0.157800
      5 N39          6.5680     5.8670     0.1750 n3         1 BRA      -0.721600
      6 C38          5.3750     5.1040     0.4510 c3         1 BRA       0.179300
      7 C37          5.2290     3.9200    -0.4950 c3         1 BRA      -0.162900
      8 C36          3.9010     3.2140    -0.3320 c          1 BRA       0.671100
      9 O52          2.8790     3.8040    -0.0340 o          1 BRA      -0.567100
     10 N17          3.9530     1.8770    -0.5780 ns         1 BRA      -0.473600
     11 C3           2.9230     0.9390    -0.5950 ca         1 BRA       0.087100
     12 C4           1.6000     1.2100    -0.3710 ca         1 BRA      -0.223800
     13 C2           3.3190    -0.3960    -0.8940 ca         1 BRA      -0.192500
     14 C1           2.4110    -1.4060    -0.9190 ca         1 BRA      -0.065000
     15 C6           1.0360    -1.1730    -0.6520 ca         1 BRA      -0.243300
     16 C10          0.0430    -2.1810    -0.6680 ca         1 BRA       0.267600
     17 N19          0.3420    -3.4950    -0.8670 nu         1 BRA      -0.646000
     18 C28          1.4270    -4.1900    -0.2840 ca         1 BRA       0.072600
     19 C29          1.8280    -3.9510     1.0250 ca         1 BRA      -0.100500
     20 C24          2.8840    -4.6440     1.5850 ca         1 BRA      -0.194000
     21 C25          3.5800    -5.6320     0.8610 ca         1 BRA       0.188600
     22 N15          4.6360    -6.3110     1.4100 nh         1 BRA      -0.683000
     23 C16          4.9180    -6.1630     2.8180 c3         1 BRA       0.213100
     24 C18          5.1850    -7.4530     0.7180 c3         1 BRA       0.213100
     25 C26          3.1390    -5.8850    -0.4510 ca         1 BRA      -0.194000
     26 C27          2.0970    -5.1670    -1.0100 ca         1 BRA      -0.100500
     27 C5           0.6250     0.1750    -0.4230 ca         1 BRA       0.483100
     28 N7          -0.6470     0.5470    -0.2760 nb         1 BRA      -0.700000
     29 C8          -1.5900    -0.3930    -0.3380 ca         1 BRA       0.483100
     30 C11         -2.9380     0.0370    -0.1950 ca         1 BRA      -0.223800
     31 C9          -1.3050    -1.7780    -0.5120 ca         1 BRA      -0.243300
     32 C14         -2.3940    -2.6870    -0.4780 ca         1 BRA      -0.065000
     33 C13         -3.6730    -2.2560    -0.3320 ca         1 BRA      -0.192500
     34 C12         -3.9660    -0.8680    -0.1950 ca         1 BRA       0.087100
     35 N21         -5.3150    -0.5530    -0.0490 ns         1 BRA      -0.473600
     36 C44         -5.9000     0.6630     0.1510 c          1 BRA       0.671100
     37 O53         -5.2850     1.7100     0.1670 o          1 BRA      -0.567100
     38 C45         -7.3930     0.5840     0.3890 c3         1 BRA      -0.162900
     39 C46         -8.1050     1.8830     0.0460 c3         1 BRA       0.179300
     40 N47         -9.4910     1.8620     0.4480 n3         1 BRA      -0.721600
     41 C48        -10.3350     0.9430    -0.2970 c5         1 BRA       0.157800
     42 C49        -11.7610     1.3690     0.0680 c5         1 BRA      -0.079400
     43 C50        -11.6190     2.8360     0.5260 c5         1 BRA      -0.079400
     44 C51        -10.1430     3.1510     0.3000 c5         1 BRA       0.157800
     45 H40          6.4820     6.9340     2.0090 h1         1 BRA       0.035325
     46 H40A         5.8750     7.8110     0.5990 h1         1 BRA       0.035325
     47 H41          8.0940     8.2310    -0.2080 hc         1 BRA       0.046575
     48 H41A         8.4420     8.1860     1.5110 hc         1 BRA       0.046575
     49 H42          9.3890     6.3300    -0.5110 hc         1 BRA       0.046575
     50 H42A         9.6240     6.1400     1.2150 hc         1 BRA       0.046575
     51 H43          8.0270     4.3970    -0.2550 h1         1 BRA       0.035325
     52 H43A         7.7880     4.7100     1.4660 h1         1 BRA       0.035325
     53 H38          5.3540     4.7440     1.4950 h1         1 BRA       0.047950
     54 H38A         4.5130     5.7620     0.3300 h1         1 BRA       0.047950
     55 H37          5.2870     4.2780    -1.5290 hc         1 BRA       0.065200
     56 H37A         6.0540     3.2160    -0.3670 hc         1 BRA       0.065200
     57 HN17         4.8640     1.5070    -0.8010 hn         1 BRA       0.313500
     58 H4           1.2460     2.2060    -0.1660 ha         1 BRA       0.184000
     59 H2           4.3590    -0.6090    -1.1110 ha         1 BRA       0.125500
     60 H1           2.7600    -2.3970    -1.1650 ha         1 BRA       0.130500
     61 HN19        -0.4230    -4.0840    -1.1560 hn         1 BRA       0.431800
     62 H29          1.3110    -3.2130     1.6260 ha         1 BRA       0.139000
     63 H24          3.1500    -4.4200     2.6080 ha         1 BRA       0.134000
     64 H16          4.0920    -6.4960     3.4570 h1         1 BRA       0.036367
     65 H16A         5.7940    -6.7520     3.0720 h1         1 BRA       0.036367
     66 H16B         5.1430    -5.1260     3.0750 h1         1 BRA       0.036367
     67 H18          5.5580    -7.1840    -0.2720 h1         1 BRA       0.036367
     68 H18A         6.0310    -7.8380     1.2810 h1         1 BRA       0.036367
     69 H18B         4.4630    -8.2670     0.5940 h1         1 BRA       0.036367
     70 H26          3.6140    -6.6410    -1.0610 ha         1 BRA       0.134000
     71 H27          1.8020    -5.3740    -2.0310 ha         1 BRA       0.139000
     72 H11         -3.1050     1.0950    -0.0800 ha         1 BRA       0.184000
     73 H14         -2.2310    -3.7540    -0.5480 ha         1 BRA       0.130500
     74 H13         -4.4800    -2.9780    -0.3030 ha         1 BRA       0.125500
     75 HN21        -5.9380    -1.3450    -0.0520 hn         1 BRA       0.313500
     76 H45         -7.8200    -0.2540    -0.1680 hc         1 BRA       0.065200
     77 H45A        -7.5500     0.3580     1.4490 hc         1 BRA       0.065200
     78 H46         -7.6130     2.7050     0.5690 h1         1 BRA       0.047950
     79 H46A        -7.9990     2.0890    -1.0340 h1         1 BRA       0.047950
     80 H48        -10.1730     1.0440    -1.3850 h1         1 BRA       0.035325
     81 H48A       -10.1300    -0.0970    -0.0360 h1         1 BRA       0.035325
     82 H49        -12.4320     1.2630    -0.7840 hc         1 BRA       0.046575
     83 H49A       -12.1610     0.7480     0.8690 hc         1 BRA       0.046575
     84 H50        -12.2660     3.5160    -0.0280 hc         1 BRA       0.046575
     85 H50A       -11.8740     2.9360     1.5820 hc         1 BRA       0.046575
     86 H51         -9.7400     3.8760     1.0110 h1         1 BRA       0.035325
     87 H51A        -9.9930     3.5670    -0.7110 h1         1 BRA       0.035325
@<TRIPOS>BOND
     1     1     2 1   
     2     1     5 1   
     3     1    45 1   
     4     1    46 1   
     5     2     3 1   
     6     2    47 1   
     7     2    48 1   
     8     3     4 1   
     9     3    49 1   
    10     3    50 1   
    11     4     5 1   
    12     4    51 1   
    13     4    52 1   
    14     5     6 1   
    15     6     7 1   
    16     6    53 1   
    17     6    54 1   
    18     7     8 1   
    19     7    55 1   
    20     7    56 1   
    21     8     9 2   
    22     8    10 1   
    23    10    11 1   
    24    10    57 1   
    25    11    12 ar  
    26    11    13 ar  
    27    12    27 ar  
    28    12    58 1   
    29    13    14 ar  
    30    13    59 1   
    31    14    15 ar  
    32    14    60 1   
    33    15    16 ar  
    34    15    27 ar  
    35    16    17 1   
    36    16    31 ar  
    37    17    18 1   
    38    17    61 1   
    39    18    19 ar  
    40    18    26 ar  
    41    19    20 ar  
    42    19    62 1   
    43    20    21 ar  
    44    20    63 1   
    45    21    22 1   
    46    21    25 ar  
    47    22    23 1   
    48    22    24 1   
    49    23    64 1   
    50    23    65 1   
    51    23    66 1   
    52    24    67 1   
    53    24    68 1   
    54    24    69 1   
    55    25    26 ar  
    56    25    70 1   
    57    26    71 1   
    58    27    28 ar  
    59    28    29 ar  
    60    29    30 ar  
    61    29    31 ar  
    62    30    34 ar  
    63    30    72 1   
    64    31    32 ar  
    65    32    33 ar  
    66    32    73 1   
    67    33    34 ar  
    68    33    74 1   
    69    34    35 1   
    70    35    36 1   
    71    35    75 1   
    72    36    37 2   
    73    36    38 1   
    74    38    39 1   
    75    38    76 1   
    76    38    77 1   
    77    39    40 1   
    78    39    78 1   
    79    39    79 1   
    80    40    41 1   
    81    40    44 1   
    82    41    42 1   
    83    41    80 1   
    84    41    81 1   
    85    42    43 1   
    86    42    82 1   
    87    42    83 1   
    88    43    44 1   
    89    43    84 1   
    90    43    85 1   
    91    44    86 1   
    92    44    87 1   
@<TRIPOS>SUBSTRUCTURE
     1 BRA         1 TEMP              0 ****  ****    0 ROOT
