@<TRIPOS>MOLECULE
BRA
   87    92     1     0     0
SMALL
No Charge or Current Charge


@<TRIPOS>ATOM
      1 C40          7.5780     6.3480     1.7370 c5         1 BRA       0.157800
      2 C41          8.8940     7.0340     1.2900 c5         1 BRA      -0.079400
      3 C42          9.3720     6.1650     0.0840 c5         1 BRA      -0.079400
      4 C43          8.2320     5.1280    -0.1100 c5         1 BRA       0.157800
      5 N39          7.0630     5.8450     0.4480 n3         1 BRA      -0.721600
      6 C38          5.8030     5.0750     0.5380 c3         1 BRA       0.179300
      7 C37          5.2310     4.6700    -0.8320 c3         1 BRA      -0.162900
      8 C36          3.8890     3.9590    -0.6560 c          1 BRA       0.604100
      9 O52          2.8730     4.5780    -0.3620 o          1 BRA      -0.567100
     10 N17          3.9320     2.5900    -0.8900 ns         1 BRA      -0.147500
     11 C3           2.9350     1.5770    -0.8450 ca         1 BRA      -0.005500
     12 C4           1.5850     1.8160    -0.5130 ca         1 BRA      -0.140500
     13 C2           3.3260     0.2680    -1.1580 ca         1 BRA      -0.174500
     14 C1           2.3990    -0.7830    -1.1320 ca         1 BRA      -0.047000
     15 C6           1.0500    -0.5420    -0.7790 ca         1 BRA      -0.178000
     16 C10          0.0840    -1.5720    -0.7330 ca         1 BRA       0.406000
     17 N19          0.4270    -2.9070    -0.9970 nu         1 BRA      -0.978000
     18 C28          1.3110    -3.7900    -0.3670 ca         1 BRA       0.211000
     19 C29          2.0030    -3.4230     0.8020 ca         1 BRA      -0.082500
     20 C24          2.8820    -4.3290     1.4250 ca         1 BRA      -0.176000
     21 C25          3.0830    -5.6200     0.8950 ca         1 BRA       0.327000
     22 N15          3.9690    -6.5340     1.5230 nh         1 BRA      -0.821400
     23 C16          4.2440    -6.4700     2.9780 c3         1 BRA       0.213100
     24 C18          4.6630    -7.5930     0.7520 c3         1 BRA       0.213100
     25 C26          2.3800    -5.9830    -0.2720 ca         1 BRA      -0.176000
     26 C27          1.5000    -5.0780    -0.8950 ca         1 BRA      -0.082500
     27 C5           0.6410     0.7740    -0.4830 ca         1 BRA       0.352500
     28 N7          -0.6360     1.0740    -0.1790 nb         1 BRA      -0.700000
     29 C8          -1.5690     0.1040    -0.1550 ca         1 BRA       0.352500
     30 C11         -2.8950     0.4540     0.1570 ca         1 BRA      -0.140500
     31 C9          -1.2540    -1.2430    -0.4290 ca         1 BRA      -0.178000
     32 C14         -2.2770    -2.2200    -0.3730 ca         1 BRA      -0.047000
     33 C13         -3.5930    -1.8510    -0.0600 ca         1 BRA      -0.174500
     34 C12         -3.9190    -0.5140     0.2080 ca         1 BRA      -0.005500
     35 N21         -5.2760    -0.2170     0.5170 ns         1 BRA      -0.147500
     36 C44         -5.9210     0.9640     0.8630 c          1 BRA       0.604100
     37 O53         -5.3590     2.0450     0.9960 o          1 BRA      -0.567100
     38 C45         -7.4210     0.8110     1.1130 c3         1 BRA      -0.162900
     39 C46         -8.2210     1.4350    -0.0440 c3         1 BRA       0.179300
     40 N47         -9.6860     1.4030     0.1650 n3         1 BRA      -0.721600
     41 C48        -10.3130     0.0630     0.2080 c5         1 BRA       0.157800
     42 C49        -11.8240     0.4150     0.2870 c5         1 BRA      -0.079400
     43 C50        -11.9220     1.8220    -0.3830 c5         1 BRA      -0.079400
     44 C51        -10.4770     2.0960    -0.8710 c5         1 BRA       0.157800
     45 H40          7.7760     5.5250     2.4390 h1         1 BRA       0.035325
     46 H40A         6.8890     7.0540     2.2210 h1         1 BRA       0.035325
     47 H41          8.7070     8.0670     0.9750 hc         1 BRA       0.046575
     48 H41A         9.6300     7.0710     2.1010 hc         1 BRA       0.046575
     49 H42          9.5000     6.7820    -0.8130 hc         1 BRA       0.046575
     50 H42A        10.3320     5.6740     0.2770 hc         1 BRA       0.046575
     51 H43          8.1050     4.8590    -1.1670 h1         1 BRA       0.035325
     52 H43A         8.4380     4.2070     0.4550 h1         1 BRA       0.035325
     53 H38          5.9590     4.1690     1.1420 h1         1 BRA       0.047950
     54 H38A         5.0480     5.6810     1.0590 h1         1 BRA       0.047950
     55 H37          5.0760     5.5790    -1.4240 hc         1 BRA       0.065200
     56 H37A         5.9420     4.0070    -1.3370 hc         1 BRA       0.065200
     57 HN17         4.8500     2.2440    -1.1370 hn         1 BRA       0.147000
     58 H4           1.2350     2.8130    -0.2740 ha         1 BRA       0.166000
     59 H2           4.3590     0.0580    -1.4290 ha         1 BRA       0.107500
     60 H1           2.7420    -1.7790    -1.3980 ha         1 BRA       0.112500
     61 HN19        -0.2220    -3.3630    -1.6370 hn         1 BRA       0.487000
     62 H29          1.8620    -2.4370     1.2340 ha         1 BRA       0.121000
     63 H24          3.4120    -4.0140     2.3190 ha         1 BRA       0.116000
     64 H16          3.3390    -6.1830     3.5300 h1         1 BRA       0.036367
     65 H16A         4.5670    -7.4490     3.3580 h1         1 BRA       0.036367
     66 H16B         5.0350    -5.7370     3.1890 h1         1 BRA       0.036367
     67 H18          4.9330    -7.2290    -0.2480 h1         1 BRA       0.036367
     68 H18A         5.5910    -7.8980     1.2550 h1         1 BRA       0.036367
     69 H18B         4.0190    -8.4760     0.6460 h1         1 BRA       0.036367
     70 H26          2.5000    -6.9740    -0.6990 ha         1 BRA       0.116000
     71 H27          0.9680    -5.3810    -1.7930 ha         1 BRA       0.121000
     72 H11         -3.1000     1.4990     0.3570 ha         1 BRA       0.166000
     73 H14         -2.0680    -3.2700    -0.5620 ha         1 BRA       0.112500
     74 H13         -4.3650    -2.6170    -0.0230 ha         1 BRA       0.107500
     75 HN21        -5.8870    -1.0220     0.4700 hn         1 BRA       0.147000
     76 H45         -7.6800    -0.2500     1.1970 hc         1 BRA       0.065200
     77 H45A        -7.6830     1.3380     2.0370 hc         1 BRA       0.065200
     78 H46         -7.8980     2.4790    -0.1600 h1         1 BRA       0.047950
     79 H46A        -7.9630     0.9150    -0.9780 h1         1 BRA       0.047950
     80 H48        -10.0900    -0.5100    -0.7030 h1         1 BRA       0.035325
     81 H48A        -9.9900    -0.5330     1.0730 h1         1 BRA       0.035325
     82 H49        -12.4370    -0.3360    -0.2240 hc         1 BRA       0.046575
     83 H49A       -12.1650     0.4560     1.3280 hc         1 BRA       0.046575
     84 H50        -12.6420     1.8460    -1.2080 hc         1 BRA       0.046575
     85 H50A       -12.2370     2.5780     0.3450 hc         1 BRA       0.046575
     86 H51        -10.2560     3.1710    -0.9230 h1         1 BRA       0.035325
     87 H51A       -10.3030     1.6610    -1.8660 h1         1 BRA       0.035325
@<TRIPOS>BOND
     1     1     2 1   
     2     1     5 1   
     3     1    45 1   
     4     1    46 1   
     5     2     3 1   
     6     2    47 1   
     7     2    48 1   
     8     3     4 1   
     9     3    49 1   
    10     3    50 1   
    11     4     5 1   
    12     4    51 1   
    13     4    52 1   
    14     5     6 1   
    15     6     7 1   
    16     6    53 1   
    17     6    54 1   
    18     7     8 1   
    19     7    55 1   
    20     7    56 1   
    21     8     9 2   
    22     8    10 1   
    23    10    11 1   
    24    10    57 1   
    25    11    12 ar  
    26    11    13 ar  
    27    12    27 ar  
    28    12    58 1   
    29    13    14 ar  
    30    13    59 1   
    31    14    15 ar  
    32    14    60 1   
    33    15    16 ar  
    34    15    27 ar  
    35    16    17 1   
    36    16    31 ar  
    37    17    18 1   
    38    17    61 1   
    39    18    19 ar  
    40    18    26 ar  
    41    19    20 ar  
    42    19    62 1   
    43    20    21 ar  
    44    20    63 1   
    45    21    22 1   
    46    21    25 ar  
    47    22    23 1   
    48    22    24 1   
    49    23    64 1   
    50    23    65 1   
    51    23    66 1   
    52    24    67 1   
    53    24    68 1   
    54    24    69 1   
    55    25    26 ar  
    56    25    70 1   
    57    26    71 1   
    58    27    28 ar  
    59    28    29 ar  
    60    29    30 ar  
    61    29    31 ar  
    62    30    34 ar  
    63    30    72 1   
    64    31    32 ar  
    65    32    33 ar  
    66    32    73 1   
    67    33    34 ar  
    68    33    74 1   
    69    34    35 1   
    70    35    36 1   
    71    35    75 1   
    72    36    37 2   
    73    36    38 1   
    74    38    39 1   
    75    38    76 1   
    76    38    77 1   
    77    39    40 1   
    78    39    78 1   
    79    39    79 1   
    80    40    41 1   
    81    40    44 1   
    82    41    42 1   
    83    41    80 1   
    84    41    81 1   
    85    42    43 1   
    86    42    82 1   
    87    42    83 1   
    88    43    44 1   
    89    43    84 1   
    90    43    85 1   
    91    44    86 1   
    92    44    87 1   
@<TRIPOS>SUBSTRUCTURE
     1 BRA         1 TEMP              0 ****  ****    0 ROOT
