@<TRIPOS>MOLECULE
BRB
   16    16     1     0     0
SMALL
No Charge or Current Charge


@<TRIPOS>ATOM
      1 C1          -0.0040     0.3090     2.2540 ca         1 BRB      -0.076300
      2 C2          -1.2130     0.2710     1.5300 ca         1 BRB      -0.088500
      3 C3          -1.1980     0.1720     0.1270 ca         1 BRB      -0.089000
      4 C4           0.0270     0.1090    -0.5570 ca         1 BRB      -0.010900
      5 C5           1.2360     0.1450     0.1560 ca         1 BRB      -0.089000
      6 C6           1.2210     0.2450     1.5590 ca         1 BRB      -0.088500
      7 C7          -0.0210     0.4210     3.7730 c3         1 BRB       0.206900
      8 Br4          0.0490    -0.0270    -2.4650 br         1 BRB      -0.101100
      9 O1          -0.0430    -0.8810     4.3680 oh         1 BRB      -0.652000
     10 H2          -2.1650     0.3170     2.0550 ha         1 BRB       0.117500
     11 H3          -2.1340     0.1420    -0.4260 ha         1 BRB       0.130000
     12 H5           2.1850     0.0960    -0.3740 ha         1 BRB       0.130000
     13 H6           2.1600     0.2710     2.1070 ha         1 BRB       0.117500
     14 H71         -0.9040     0.9960     4.0840 h1         1 BRB       0.025700
     15 H72          0.8660     0.9760     4.1060 h1         1 BRB       0.025700
     16 HO1         -0.0530    -0.7460     5.3410 ho         1 BRB       0.442000
@<TRIPOS>BOND
     1     1     2 ar  
     2     1     6 ar  
     3     1     7 1   
     4     2     3 ar  
     5     2    10 1   
     6     3     4 ar  
     7     3    11 1   
     8     4     5 ar  
     9     4     8 1   
    10     5     6 ar  
    11     5    12 1   
    12     6    13 1   
    13     7     9 1   
    14     7    14 1   
    15     7    15 1   
    16     9    16 1   
@<TRIPOS>SUBSTRUCTURE
     1 BRB         1 TEMP              0 ****  ****    0 ROOT
