@<TRIPOS>MOLECULE
BRB
   16    16     1     0     0
SMALL
abcg2


@<TRIPOS>ATOM
      1 C1           0.0080     0.3450     2.2560 ca         1 BRB      -0.076300
      2 C2          -1.1840     0.2750     1.5420 ca         1 BRB      -0.088500
      3 C3          -1.1880     0.1510     0.1600 ca         1 BRB      -0.089000
      4 C4           0.0240     0.0900    -0.5110 ca         1 BRB      -0.010900
      5 C5           1.2280     0.1540     0.1730 ca         1 BRB      -0.089000
      6 C6           1.2070     0.2790     1.5560 ca         1 BRB      -0.088500
      7 C7          -0.0040     0.4340     3.7540 c3         1 BRB       0.206900
      8 BR4          0.0350    -0.0740    -2.3940 br         1 BRB      -0.101100
      9 O1          -0.0930    -0.8800     4.2680 oh         1 BRB      -0.652000
     10 H2          -2.1310     0.3270     2.0670 ha         1 BRB       0.117500
     11 H3          -2.1270     0.1040    -0.3760 ha         1 BRB       0.130000
     12 H5           2.1740     0.1090    -0.3500 ha         1 BRB       0.130000
     13 H6           2.1470     0.3330     2.0920 ha         1 BRB       0.117500
     14 H71         -0.8530     1.0480     4.0770 h1         1 BRB       0.025700
     15 H72          0.9070     0.9380     4.0970 h1         1 BRB       0.025700
     16 HO1         -0.1420    -0.8170     5.2270 ho         1 BRB       0.442000
@<TRIPOS>BOND
     1     1     2 ar  
     2     1     6 ar  
     3     1     7 1   
     4     2     3 ar  
     5     2    10 1   
     6     3     4 ar  
     7     3    11 1   
     8     4     5 ar  
     9     4     8 1   
    10     5     6 ar  
    11     5    12 1   
    12     6    13 1   
    13     7     9 1   
    14     7    14 1   
    15     7    15 1   
    16     9    16 1   
@<TRIPOS>SUBSTRUCTURE
     1 BRB         1 TEMP              0 ****  ****    0 ROOT
