@<TRIPOS>MOLECULE
BRC
   37    36     1     0     0
SMALL
No Charge or Current Charge


@<TRIPOS>ATOM
      1 C1           0.3040    -0.0410     8.6560 c          1 BRC       0.717000
      2 OE1          0.8110     0.9820     9.0920 o          1 BRC      -0.743500
      3 OE2          0.5260    -1.1520     9.1100 o          1 BRC      -0.743500
      4 C2          -0.6180     0.0720     7.4280 c3         1 BRC      -0.204400
      5 C3           0.2090    -0.0490     6.1240 c3         1 BRC      -0.054400
      6 C4          -0.6520     0.0550     4.8450 c3         1 BRC      -0.079400
      7 C5           0.1760    -0.0660     3.5470 c3         1 BRC      -0.075400
      8 C6          -0.6850     0.0380     2.2690 c3         1 BRC      -0.074400
      9 C7           0.1430    -0.0830     0.9710 c3         1 BRC      -0.075400
     10 C8          -0.7180     0.0210    -0.3070 c3         1 BRC      -0.075400
     11 C9           0.1090    -0.0990    -1.6050 c3         1 BRC      -0.075400
     12 C10         -0.7520     0.0050    -2.8830 c3         1 BRC      -0.078400
     13 C11          0.0760    -0.1160    -4.1810 c3         1 BRC      -0.079400
     14 C12         -0.7860    -0.0110    -5.4540 c3         1 BRC       0.101600
     15 Br1          0.3260    -0.1730    -7.1000 br         1 BRC      -0.293000
     16 H21         -1.3340    -0.7590     7.4070 hc         1 BRC       0.014200
     17 H22         -1.0910     1.0620     7.3920 hc         1 BRC       0.014200
     18 H31          0.9740     0.7380     6.1080 hc         1 BRC       0.037700
     19 H32          0.7410    -1.0090     6.1230 hc         1 BRC       0.037700
     20 H41         -1.4150    -0.7330     4.8600 hc         1 BRC       0.023700
     21 H42         -1.1820     1.0160     4.8450 hc         1 BRC       0.023700
     22 H51          0.9390     0.7220     3.5320 hc         1 BRC       0.033700
     23 H52          0.7060    -1.0260     3.5460 hc         1 BRC       0.033700
     24 H61         -1.4480    -0.7500     2.2840 hc         1 BRC       0.032200
     25 H62         -1.2160     0.9980     2.2700 hc         1 BRC       0.032200
     26 H71          0.9060     0.7050     0.9560 hc         1 BRC       0.035700
     27 H72          0.6730    -1.0430     0.9700 hc         1 BRC       0.035700
     28 H81         -1.4820    -0.7670    -0.2920 hc         1 BRC       0.035700
     29 H82         -1.2490     0.9820    -0.3060 hc         1 BRC       0.035700
     30 H91          0.8730     0.6890    -1.6200 hc         1 BRC       0.038700
     31 H92          0.6400    -1.0600    -1.6060 hc         1 BRC       0.038700
     32 H101        -1.5160    -0.7830    -2.8680 hc         1 BRC       0.038700
     33 H102        -1.2830     0.9650    -2.8820 hc         1 BRC       0.038700
     34 H111         0.8380     0.6730    -4.2010 hc         1 BRC       0.055700
     35 H112         0.6050    -1.0760    -4.1870 hc         1 BRC       0.055700
     36 H121        -1.5310    -0.8170    -5.4910 h1         1 BRC       0.068700
     37 H122        -1.2940     0.9600    -5.5050 h1         1 BRC       0.068700
@<TRIPOS>BOND
     1     1     2 1   
     2     1     3 1   
     3     1     4 1   
     4     4     5 1   
     5     4    16 1   
     6     4    17 1   
     7     5     6 1   
     8     5    18 1   
     9     5    19 1   
    10     6     7 1   
    11     6    20 1   
    12     6    21 1   
    13     7     8 1   
    14     7    22 1   
    15     7    23 1   
    16     8     9 1   
    17     8    24 1   
    18     8    25 1   
    19     9    10 1   
    20     9    26 1   
    21     9    27 1   
    22    10    11 1   
    23    10    28 1   
    24    10    29 1   
    25    11    12 1   
    26    11    30 1   
    27    11    31 1   
    28    12    13 1   
    29    12    32 1   
    30    12    33 1   
    31    13    14 1   
    32    13    34 1   
    33    13    35 1   
    34    14    15 1   
    35    14    36 1   
    36    14    37 1   
@<TRIPOS>SUBSTRUCTURE
     1 BRC         1 TEMP              0 ****  ****    0 ROOT
