@<TRIPOS>MOLECULE
BRC
   37    36     1     0     0
SMALL
bcc


@<TRIPOS>ATOM
      1 C1           0.2150    -0.0650     8.6460 c          1 BRC       0.927600
      2 OE1          1.4570     0.0220     8.5860 o          1 BRC      -0.848800
      3 OE2         -0.4680    -0.1620     9.6880 o          1 BRC      -0.848800
      4 C2          -0.5740    -0.0490     7.3250 c3         1 BRC      -0.204400
      5 C3           0.2510    -0.0240     6.0490 c3         1 BRC      -0.054400
      6 C4          -0.6070    -0.0180     4.7900 c3         1 BRC      -0.079400
      7 C5           0.2090    -0.0100     3.5030 c3         1 BRC      -0.075400
      8 C6          -0.6480    -0.0050     2.2440 c3         1 BRC      -0.074400
      9 C7           0.1680    -0.0110     0.9580 c3         1 BRC      -0.075400
     10 C8          -0.6930    -0.0040    -0.3000 c3         1 BRC      -0.075400
     11 C9           0.1230    -0.0220    -1.5860 c3         1 BRC      -0.075400
     12 C10         -0.7450    -0.0140    -2.8390 c3         1 BRC      -0.078400
     13 C11          0.0830    -0.0400    -4.1230 c3         1 BRC      -0.079400
     14 C12         -0.8260    -0.0320    -5.3330 c3         1 BRC       0.019000
     15 BR1          0.2020    -0.0660    -7.0190 br         1 BRC      -0.210400
     16 H21         -1.2400    -0.9200     7.3140 hc         1 BRC       0.014200
     17 H22         -1.2480     0.8170     7.3420 hc         1 BRC       0.014200
     18 H31          0.9020     0.8560     6.0450 hc         1 BRC       0.037700
     19 H32          0.9200    -0.8900     6.0220 hc         1 BRC       0.037700
     20 H41         -1.2660    -0.8950     4.7930 hc         1 BRC       0.023700
     21 H42         -1.2710     0.8550     4.8030 hc         1 BRC       0.023700
     22 H51          0.8690     0.8650     3.4970 hc         1 BRC       0.033700
     23 H52          0.8700    -0.8850     3.4880 hc         1 BRC       0.033700
     24 H61         -1.3130    -0.8760     2.2560 hc         1 BRC       0.032200
     25 H62         -1.3020     0.8750     2.2540 hc         1 BRC       0.032200
     26 H71          0.8360     0.8570     0.9460 hc         1 BRC       0.035700
     27 H72          0.8190    -0.8930     0.9450 hc         1 BRC       0.035700
     28 H81         -1.3650    -0.8690    -0.2840 hc         1 BRC       0.035700
     29 H82         -1.3390     0.8820    -0.2920 hc         1 BRC       0.035700
     30 H91          0.7950     0.8430    -1.6050 hc         1 BRC       0.038700
     31 H92          0.7670    -0.9080    -1.5970 hc         1 BRC       0.038700
     32 H101        -1.4180    -0.8780    -2.8200 hc         1 BRC       0.038700
     33 H102        -1.3850     0.8750    -2.8330 hc         1 BRC       0.038700
     34 H111         0.7480     0.8270    -4.1470 hc         1 BRC       0.055700
     35 H112         0.7140    -0.9320    -4.1340 hc         1 BRC       0.055700
     36 H121        -1.4760    -0.9050    -5.3580 h1         1 BRC       0.068700
     37 H122        -1.4400     0.8670    -5.3730 h1         1 BRC       0.068700
@<TRIPOS>BOND
     1     1     2 1   
     2     1     3 1   
     3     1     4 1   
     4     4     5 1   
     5     4    16 1   
     6     4    17 1   
     7     5     6 1   
     8     5    18 1   
     9     5    19 1   
    10     6     7 1   
    11     6    20 1   
    12     6    21 1   
    13     7     8 1   
    14     7    22 1   
    15     7    23 1   
    16     8     9 1   
    17     8    24 1   
    18     8    25 1   
    19     9    10 1   
    20     9    26 1   
    21     9    27 1   
    22    10    11 1   
    23    10    28 1   
    24    10    29 1   
    25    11    12 1   
    26    11    30 1   
    27    11    31 1   
    28    12    13 1   
    29    12    32 1   
    30    12    33 1   
    31    13    14 1   
    32    13    34 1   
    33    13    35 1   
    34    14    15 1   
    35    14    36 1   
    36    14    37 1   
@<TRIPOS>SUBSTRUCTURE
     1 BRC         1 TEMP              0 ****  ****    0 ROOT
