@<TRIPOS>MOLECULE
BRD
   31    32     1     0     0
SMALL
bcc


@<TRIPOS>ATOM
      1 C4           1.3710     0.0810    -3.4800 cc         1 BRD      -0.014400
      2 N3           1.2020    -0.9670    -2.5740 ns         1 BRD      -0.491100
      3 C2           0.6690    -0.8940    -1.3070 c          1 BRD       0.844500
      4 N1          -0.2890     0.0780    -1.0990 n          1 BRD      -0.418000
      5 C7          -1.2250     0.4480    -2.0930 cc         1 BRD      -0.017400
      6 C6          -0.9230     0.8900    -3.3130 cd         1 BRD      -0.147000
      7 O2           1.0480    -1.6540    -0.4400 o          1 BRD      -0.659500
      8 C1          -0.6410     0.4620     0.2560 c5         1 BRD       0.326500
      9 O4           0.5040     0.8760     0.9460 os         1 BRD      -0.376600
     10 C8           0.4160     0.5230     2.3260 c5         1 BRD       0.115100
     11 C3          -0.9960    -0.0350     2.5390 c5         1 BRD       0.078100
     12 C9          -1.3220    -0.5800     1.1470 c5         1 BRD       0.097100
     13 O1          -2.6780    -0.6470     0.8160 oh         1 BRD      -0.570800
     14 O3          -1.9290     0.9720     2.8410 oh         1 BRD      -0.571800
     15 C5           1.5060    -0.4550     2.7130 c3         1 BRD       0.126400
     16 O5           2.7540     0.1580     2.4880 oh         1 BRD      -0.581800
     17 C10          0.4240     0.9500    -3.8390 cd         1 BRD      -0.171000
     18 HC4          2.3540     0.1130    -3.9340 h4         1 BRD       0.130000
     19 HN3          1.8970    -1.6960    -2.6440 hn         1 BRD       0.317500
     20 HC7         -2.2600     0.3800    -1.7800 h4         1 BRD       0.144000
     21 HC6         -1.7430     1.1860    -3.9560 ha         1 BRD       0.140000
     22 H1          -1.3360     1.3030     0.1340 h2         1 BRD       0.084700
     23 H4           0.5500     1.4340     2.9230 h1         1 BRD       0.073700
     24 H3'1        -1.0030    -0.8250     3.3010 h1         1 BRD       0.048700
     25 H2          -0.8350    -1.5510     1.0340 h1         1 BRD       0.073700
     26 H2'1        -3.0640    -1.4130     1.2510 ho         1 BRD       0.411000
     27 H3          -1.6990     1.3460     3.6970 ho         1 BRD       0.405000
     28 H5'1         1.4050    -1.3860     2.1460 h1         1 BRD       0.029200
     29 H5'2         1.3640    -0.7020     3.7740 h1         1 BRD       0.029200
     30 H5           3.4400    -0.4910     2.6620 ho         1 BRD       0.404000
     31 HC5          0.6650     1.6920    -4.5880 ha         1 BRD       0.140000
@<TRIPOS>BOND
     1     1     2 1   
     2     1    17 2   
     3     1    18 1   
     4     2     3 1   
     5     2    19 1   
     6     3     4 1   
     7     3     7 2   
     8     4     5 1   
     9     4     8 1   
    10     5     6 2   
    11     5    20 1   
    12     6    17 1   
    13     6    21 1   
    14     8     9 1   
    15     8    12 1   
    16     8    22 1   
    17     9    10 1   
    18    10    11 1   
    19    10    15 1   
    20    10    23 1   
    21    11    12 1   
    22    11    14 1   
    23    11    24 1   
    24    12    13 1   
    25    12    25 1   
    26    13    26 1   
    27    14    27 1   
    28    15    16 1   
    29    15    28 1   
    30    15    29 1   
    31    16    30 1   
    32    17    31 1   
@<TRIPOS>SUBSTRUCTURE
     1 BRD         1 TEMP              0 ****  ****    0 ROOT
