@<TRIPOS>MOLECULE
BRD
   31    32     1     0     0
SMALL
No Charge or Current Charge


@<TRIPOS>ATOM
      1 C4           1.1630    -0.1740    -3.8820 cc         1 BRD      -0.064400
      2 N3           1.5240    -0.5930    -2.6130 ns         1 BRD      -0.537600
      3 C2           1.0100    -0.4340    -1.3600 c          1 BRD       0.635000
      4 N1          -0.1660     0.3090    -1.0910 n          1 BRD      -0.351000
      5 C7          -1.0820     0.8330    -2.0210 cc         1 BRD      -0.067400
      6 C6          -1.0280     0.9280    -3.3950 cd         1 BRD      -0.197000
      7 O2           1.6380    -1.0020    -0.4830 o          1 BRD      -0.584000
      8 C1          -0.5100     0.5740     0.3500 c5         1 BRD       0.349700
      9 O4           0.6120     0.9170     1.1900 os         1 BRD      -0.423000
     10 C8           0.3480     0.4060     2.5300 c5         1 BRD       0.138300
     11 C3          -1.0850    -0.2480     2.4740 c5         1 BRD       0.101300
     12 C9          -1.1520    -0.7010     0.9880 c5         1 BRD       0.120300
     13 O1          -2.5150    -0.9520     0.6090 oh         1 BRD      -0.693000
     14 O3          -2.1420     0.6930     2.7550 oh         1 BRD      -0.694000
     15 C5           1.4670    -0.5990     2.9380 c3         1 BRD       0.149600
     16 O5           2.7090     0.0780     3.2100 oh         1 BRD      -0.704000
     17 C10          0.0270     0.4920    -4.2590 cd         1 BRD      -0.221000
     18 HC4          1.9110    -0.4800    -4.6110 h4         1 BRD       0.180000
     19 HN3          2.3760    -1.1400    -2.5450 hn         1 BRD       0.431000
     20 HC7         -1.9550     1.2250    -1.5080 h4         1 BRD       0.194000
     21 HC6         -1.8770     1.4110    -3.8740 ha         1 BRD       0.190000
     22 H1          -1.2250     1.4060     0.3790 h2         1 BRD       0.084700
     23 H4           0.3650     1.2420     3.2420 h1         1 BRD       0.073700
     24 H3'1        -1.1580    -1.1100     3.1530 h1         1 BRD       0.048700
     25 H2          -0.5280    -1.5890     0.8160 h1         1 BRD       0.073700
     26 H2'1        -3.0360    -0.3970     1.2420 ho         1 BRD       0.510000
     27 H3          -2.1020     0.9090     3.7180 ho         1 BRD       0.504000
     28 H5'1         1.5960    -1.3440     2.1420 h1         1 BRD       0.029200
     29 H5'2         1.1380    -1.1370     3.8380 h1         1 BRD       0.029200
     30 H5           3.3950    -0.6180     3.3360 ho         1 BRD       0.503000
     31 HC5         -0.0910     0.6930    -5.3220 ha         1 BRD       0.190000
@<TRIPOS>BOND
     1     1     2 1   
     2     1    17 2   
     3     1    18 1   
     4     2     3 1   
     5     2    19 1   
     6     3     4 1   
     7     3     7 2   
     8     4     5 1   
     9     4     8 1   
    10     5     6 2   
    11     5    20 1   
    12     6    17 1   
    13     6    21 1   
    14     8     9 1   
    15     8    12 1   
    16     8    22 1   
    17     9    10 1   
    18    10    11 1   
    19    10    15 1   
    20    10    23 1   
    21    11    12 1   
    22    11    14 1   
    23    11    24 1   
    24    12    13 1   
    25    12    25 1   
    26    13    26 1   
    27    14    27 1   
    28    15    16 1   
    29    15    28 1   
    30    15    29 1   
    31    16    30 1   
    32    17    31 1   
@<TRIPOS>SUBSTRUCTURE
     1 BRD         1 TEMP              0 ****  ****    0 ROOT
