@<TRIPOS>MOLECULE
BRE
   42    45     1     0     0
SMALL
No Charge or Current Charge


@<TRIPOS>ATOM
      1 C1           2.5260     0.4640    -0.7230 c3         1 BRE      -0.033800
      2 C2           1.1780     0.2150    -1.4100 ca         1 BRE      -0.116300
      3 C3          -0.0260     0.0610    -0.6620 cp         1 BRE       0.402500
      4 C4           1.1110     0.1610    -2.8260 ca         1 BRE      -0.069600
      5 N1          -1.2270    -0.0770    -1.2660 nb         1 BRE      -0.702000
      6 C5           2.3600     0.2880    -3.6640 c          1 BRE       0.713600
      7 C23         -0.0700     0.0430     0.8390 cp         1 BRE      -0.106500
      8 C6          -0.1560    -0.0180    -3.4350 ca         1 BRE      -0.037000
      9 C7          -1.3070    -0.1260    -2.6120 ca         1 BRE       0.246000
     10 C8          -0.9820     0.8610     1.5500 ca         1 BRE      -0.088500
     11 C9           0.7700    -0.8140     1.5930 ca         1 BRE      -0.088500
     12 O1           2.5840     1.3620    -4.2050 o          1 BRE      -0.701500
     13 O2           3.0750    -0.6970    -3.7830 o          1 BRE      -0.701500
     14 C10         -0.2950    -0.0870    -4.8430 ca         1 BRE      -0.081000
     15 C11         -2.5690    -0.2920    -3.2170 ca         1 BRE      -0.079000
     16 C12         -1.0330     0.8430     2.9540 ca         1 BRE      -0.109500
     17 C13          0.7170    -0.8320     2.9970 ca         1 BRE      -0.109500
     18 C14         -1.5610    -0.2550    -5.4210 ca         1 BRE       0.120000
     19 C15         -2.7000    -0.3570    -4.6140 ca         1 BRE      -0.152000
     20 C16         -0.1830    -0.0020     3.7090 cp         1 BRE      -0.055000
     21 F1          -1.6830    -0.3190    -6.7640 f          1 BRE      -0.198000
     22 C17         -0.2380    -0.0210     5.2070 cp         1 BRE      -0.013000
     23 C18         -0.0180    -1.2180     5.9350 ca         1 BRE      -0.104000
     24 C19         -0.5130     1.1590     5.9460 ca         1 BRE      -0.104000
     25 C20         -0.0710    -1.2360     7.3390 ca         1 BRE      -0.115000
     26 C21         -0.3430    -0.0560     8.0480 ca         1 BRE      -0.121000
     27 C22         -0.5640     1.1420     7.3500 ca         1 BRE      -0.115000
     28 H11          2.4060     0.9330     0.2600 hc         1 BRE       0.041367
     29 H12          3.0760    -0.4750    -0.5850 hc         1 BRE       0.041367
     30 H13          3.1630     1.1410    -1.3030 hc         1 BRE       0.041367
     31 H81         -1.6530     1.5200     1.0030 ha         1 BRE       0.126000
     32 H91          1.4650    -1.4760     1.0820 ha         1 BRE       0.126000
     33 H101         0.5660    -0.0110    -5.5020 ha         1 BRE       0.161000
     34 H111        -3.4550    -0.3740    -2.5920 ha         1 BRE       0.114000
     35 H121        -1.7530     1.4820     3.4600 ha         1 BRE       0.105000
     36 H131         1.3910    -1.4930     3.5370 ha         1 BRE       0.105000
     37 H151        -3.6800    -0.4870    -5.0670 ha         1 BRE       0.112000
     38 H181         0.1810    -2.1470     5.4060 ha         1 BRE       0.115500
     39 H191        -0.6740     2.1000     5.4260 ha         1 BRE       0.115500
     40 H201         0.0980    -2.1660     7.8780 ha         1 BRE       0.105500
     41 H211        -0.3840    -0.0690     9.1350 ha         1 BRE       0.104000
     42 H221        -0.7730     2.0590     7.8970 ha         1 BRE       0.105500
@<TRIPOS>BOND
     1     1     2 1   
     2     1    28 1   
     3     1    29 1   
     4     1    30 1   
     5     2     3 ar  
     6     2     4 ar  
     7     3     5 ar  
     8     3     7 1   
     9     4     6 1   
    10     4     8 ar  
    11     5     9 ar  
    12     6    12 1   
    13     6    13 1   
    14     7    10 ar  
    15     7    11 ar  
    16     8     9 ar  
    17     8    14 ar  
    18     9    15 ar  
    19    10    16 ar  
    20    10    31 1   
    21    11    17 ar  
    22    11    32 1   
    23    14    18 ar  
    24    14    33 1   
    25    15    19 ar  
    26    15    34 1   
    27    16    20 ar  
    28    16    35 1   
    29    17    20 ar  
    30    17    36 1   
    31    18    19 ar  
    32    18    21 1   
    33    19    37 1   
    34    20    22 1   
    35    22    23 ar  
    36    22    24 ar  
    37    23    25 ar  
    38    23    38 1   
    39    24    27 ar  
    40    24    39 1   
    41    25    26 ar  
    42    25    40 1   
    43    26    27 ar  
    44    26    41 1   
    45    27    42 1   
@<TRIPOS>SUBSTRUCTURE
     1 BRE         1 TEMP              0 ****  ****    0 ROOT
