@<TRIPOS>MOLECULE
BRE
   42    45     1     0     0
SMALL
abcg2


@<TRIPOS>ATOM
      1 C1           2.5190     0.4460    -0.7130 c3         1 BRE      -0.033800
      2 C2           1.1960     0.2040    -1.3850 ca         1 BRE      -0.116300
      3 C3          -0.0110     0.0660    -0.6400 cp         1 BRE       0.402500
      4 C4           1.1200     0.1410    -2.7590 ca         1 BRE      -0.069600
      5 N1          -1.1900    -0.0660    -1.1990 nb         1 BRE      -0.702000
      6 C5           2.3730     0.2430    -3.6150 c          1 BRE       0.713600
      7 C23         -0.0260     0.0650     0.8430 cp         1 BRE      -0.106500
      8 C6          -0.1450    -0.0170    -3.3800 ca         1 BRE      -0.037000
      9 C7          -1.2810    -0.1080    -2.5430 ca         1 BRE       0.246000
     10 C8          -0.9610     0.8400     1.5280 ca         1 BRE      -0.088500
     11 C9           0.8280    -0.7470     1.5860 ca         1 BRE      -0.088500
     12 O1           2.5260     1.3120    -4.2290 o          1 BRE      -0.701500
     13 O2           3.1070    -0.7580    -3.6110 o          1 BRE      -0.701500
     14 C10         -0.3160    -0.0830    -4.7830 ca         1 BRE      -0.081000
     15 C11         -2.5630    -0.2620    -3.1230 ca         1 BRE      -0.079000
     16 C12         -1.0240     0.8190     2.9110 ca         1 BRE      -0.109500
     17 C13          0.7570    -0.7760     2.9690 ca         1 BRE      -0.109500
     18 C14         -1.5700    -0.2420    -5.2870 ca         1 BRE       0.120000
     19 C15         -2.7130    -0.3310    -4.4790 ca         1 BRE      -0.152000
     20 C16         -0.1670     0.0100     3.6590 cp         1 BRE      -0.055000
     21 F1          -1.7420    -0.3140    -6.6180 f          1 BRE      -0.198000
     22 C17         -0.2410    -0.0190     5.1330 cp         1 BRE      -0.013000
     23 C18         -0.0230    -1.2050     5.8380 ca         1 BRE      -0.104000
     24 C19         -0.5340     1.1390     5.8570 ca         1 BRE      -0.104000
     25 C20         -0.0930    -1.2320     7.2230 ca         1 BRE      -0.115000
     26 C21         -0.3840    -0.0740     7.9310 ca         1 BRE      -0.121000
     27 C22         -0.6050     1.1120     7.2420 ca         1 BRE      -0.115000
     28 H11          2.3990     0.9370     0.2510 hc         1 BRE       0.041367
     29 H12          3.0640    -0.4840    -0.5430 hc         1 BRE       0.041367
     30 H13          3.1560     1.0850    -1.3240 hc         1 BRE       0.041367
     31 H81         -1.6490     1.4650     0.9720 ha         1 BRE       0.126000
     32 H91          1.5510    -1.3780     1.0860 ha         1 BRE       0.126000
     33 H101         0.5280    -0.0060    -5.4550 ha         1 BRE       0.161000
     34 H111        -3.4210    -0.3300    -2.4670 ha         1 BRE       0.114000
     35 H121        -1.7700     1.4250     3.4110 ha         1 BRE       0.105000
     36 H131         1.4440    -1.4100     3.5150 ha         1 BRE       0.105000
     37 H151        -3.6890    -0.4540    -4.9300 ha         1 BRE       0.112000
     38 H181         0.1860    -2.1220     5.3010 ha         1 BRE       0.115500
     39 H191        -0.6890     2.0760     5.3380 ha         1 BRE       0.115500
     40 H201         0.0760    -2.1630     7.7480 ha         1 BRE       0.105500
     41 H211        -0.4390    -0.0950     9.0120 ha         1 BRE       0.104000
     42 H221        -0.8280     2.0220     7.7850 ha         1 BRE       0.105500
@<TRIPOS>BOND
     1     1     2 1   
     2     1    28 1   
     3     1    29 1   
     4     1    30 1   
     5     2     3 ar  
     6     2     4 ar  
     7     3     5 ar  
     8     3     7 1   
     9     4     6 1   
    10     4     8 ar  
    11     5     9 ar  
    12     6    12 1   
    13     6    13 1   
    14     7    10 ar  
    15     7    11 ar  
    16     8     9 ar  
    17     8    14 ar  
    18     9    15 ar  
    19    10    16 ar  
    20    10    31 1   
    21    11    17 ar  
    22    11    32 1   
    23    14    18 ar  
    24    14    33 1   
    25    15    19 ar  
    26    15    34 1   
    27    16    20 ar  
    28    16    35 1   
    29    17    20 ar  
    30    17    36 1   
    31    18    19 ar  
    32    18    21 1   
    33    19    37 1   
    34    20    22 1   
    35    22    23 ar  
    36    22    24 ar  
    37    23    25 ar  
    38    23    38 1   
    39    24    27 ar  
    40    24    39 1   
    41    25    26 ar  
    42    25    40 1   
    43    26    27 ar  
    44    26    41 1   
    45    27    42 1   
@<TRIPOS>SUBSTRUCTURE
     1 BRE         1 TEMP              0 ****  ****    0 ROOT
