@<TRIPOS>MOLECULE
BRF
   42    45     1     0     0
SMALL
bcc


@<TRIPOS>ATOM
      1 C1           2.5420     0.1970    -0.9440 c3         1 BRF      -0.033800
      2 C2           1.2100     0.0600    -1.6280 ca         1 BRF      -0.180600
      3 C3          -0.0080    -0.0210    -0.8920 cp         1 BRF       0.466800
      4 C4           1.1360     0.0410    -3.0030 ca         1 BRF      -0.070600
      5 N1          -1.1900    -0.0640    -1.4560 nb         1 BRF      -0.701000
      6 C5           2.3980     0.0890    -3.8530 c          1 BRF       0.924200
      7 C23         -0.0270    -0.0620     0.5910 cp         1 BRF      -0.103500
      8 C6          -0.1340    -0.0190    -3.6310 ca         1 BRF      -0.102300
      9 C7          -1.2770    -0.0630    -2.8010 ca         1 BRF       0.376600
     10 C8          -0.8940     0.7700     1.2970 ca         1 BRF      -0.108000
     11 C9           0.7550    -0.9630     1.3090 ca         1 BRF      -0.108000
     12 O1           2.6150     1.1620    -4.4420 o          1 BRF      -0.807300
     13 O2           3.0710    -0.9530    -3.8710 o          1 BRF      -0.807300
     14 C10         -0.3020    -0.0330    -5.0370 ca         1 BRF      -0.100000
     15 C11         -2.5630    -0.1200    -3.3890 ca         1 BRF      -0.162300
     16 C12         -0.9580     0.7250     2.6790 ca         1 BRF      -0.119500
     17 C13          0.6810    -1.0210     2.6910 ca         1 BRF      -0.119500
     18 C14         -1.5610    -0.0980    -5.5490 ca         1 BRF       0.085900
     19 C15         -2.7120    -0.1390    -4.7470 ca         1 BRF      -0.171000
     20 C16         -0.1710    -0.1750     3.3990 cp         1 BRF      -0.057000
     21 F1          -1.7310    -0.1180    -6.8810 f          1 BRF      -0.162900
     22 C17         -0.2500    -0.2760     4.8700 cp         1 BRF      -0.051000
     23 C18         -0.1720     0.8360     5.7000 ca         1 BRF       0.141900
     24 C19         -0.3880    -1.5170     5.4950 ca         1 BRF      -0.099000
     25 C20         -0.2360     0.7530     7.0770 ca         1 BRF      -0.177000
     26 C21         -0.3820    -0.4940     7.6670 ca         1 BRF      -0.112000
     27 C22         -0.4560    -1.6320     6.8750 ca         1 BRF      -0.150000
     28 F2          -0.0050     2.0490     5.1470 f          1 BRF      -0.139900
     29 H1C1         3.0300    -0.7700    -0.8130 hc         1 BRF       0.042033
     30 H1C2         3.2160     0.8220    -1.5260 hc         1 BRF       0.042033
     31 H1C3         2.4470     0.6520     0.0400 hc         1 BRF       0.042033
     32 H8          -1.5240     1.4660     0.7570 ha         1 BRF       0.145000
     33 H9           1.4210    -1.6410     0.7890 ha         1 BRF       0.145000
     34 H10          0.5490     0.0110    -5.7030 ha         1 BRF       0.179000
     35 H11         -3.4270    -0.1530    -2.7380 ha         1 BRF       0.132000
     36 H12         -1.6510     1.3770     3.1930 ha         1 BRF       0.126000
     37 H13          1.3010    -1.7310     3.2240 ha         1 BRF       0.126000
     38 H15         -3.6910    -0.1860    -5.2040 ha         1 BRF       0.130000
     39 H19         -0.4600    -2.4050     4.8790 ha         1 BRF       0.140000
     40 H20         -0.1630     1.6510     7.6770 ha         1 BRF       0.143000
     41 H21         -0.4340    -0.5720     8.7450 ha         1 BRF       0.127000
     42 H22         -0.5720    -2.6070     7.3290 ha         1 BRF       0.130000
@<TRIPOS>BOND
     1     1     2 1   
     2     1    29 1   
     3     1    30 1   
     4     1    31 1   
     5     2     3 ar  
     6     2     4 ar  
     7     3     5 ar  
     8     3     7 1   
     9     4     6 1   
    10     4     8 ar  
    11     5     9 ar  
    12     6    12 1   
    13     6    13 1   
    14     7    10 ar  
    15     7    11 ar  
    16     8     9 ar  
    17     8    14 ar  
    18     9    15 ar  
    19    10    16 ar  
    20    10    32 1   
    21    11    17 ar  
    22    11    33 1   
    23    14    18 ar  
    24    14    34 1   
    25    15    19 ar  
    26    15    35 1   
    27    16    20 ar  
    28    16    36 1   
    29    17    20 ar  
    30    17    37 1   
    31    18    19 ar  
    32    18    21 1   
    33    19    38 1   
    34    20    22 1   
    35    22    23 ar  
    36    22    24 ar  
    37    23    25 ar  
    38    23    28 1   
    39    24    27 ar  
    40    24    39 1   
    41    25    26 ar  
    42    25    40 1   
    43    26    27 ar  
    44    26    41 1   
    45    27    42 1   
@<TRIPOS>SUBSTRUCTURE
     1 BRF         1 TEMP              0 ****  ****    0 ROOT
