@<TRIPOS>MOLECULE
BRF
   42    45     1     0     0
SMALL
No Charge or Current Charge


@<TRIPOS>ATOM
      1 C1           2.5600     0.1770    -0.9630 c3         1 BRF      -0.033800
      2 C2           1.1990     0.0550    -1.6550 ca         1 BRF      -0.115300
      3 C3          -0.0150    -0.0260    -0.9120 cp         1 BRF       0.401500
      4 C4           1.1300     0.0490    -3.0730 ca         1 BRF      -0.070600
      5 N1          -1.2220    -0.0510    -1.5190 nb         1 BRF      -0.701000
      6 C5           2.3870     0.1010    -3.9070 c          1 BRF       0.713600
      7 C23         -0.0630    -0.0840     0.5880 cp         1 BRF      -0.103500
      8 C6          -0.1460    -0.0120    -3.6860 ca         1 BRF      -0.037000
      9 C7          -1.3030    -0.0530    -2.8660 ca         1 BRF       0.246000
     10 C8          -0.9120     0.7800     1.3230 ca         1 BRF      -0.090000
     11 C9           0.7060    -1.0260     1.3160 ca         1 BRF      -0.090000
     12 O1           2.6960     1.1690    -4.4160 o          1 BRF      -0.702000
     13 O2           3.0220    -0.9330    -4.0550 o          1 BRF      -0.702000
     14 C10         -0.2870    -0.0290    -5.0950 ca         1 BRF      -0.082000
     15 C11         -2.5730    -0.1020    -3.4750 ca         1 BRF      -0.079000
     16 C12         -0.9660     0.7250     2.7260 ca         1 BRF      -0.101500
     17 C13          0.6490    -1.0820     2.7180 ca         1 BRF      -0.101500
     18 C14         -1.5610    -0.0800    -5.6780 ca         1 BRF       0.121000
     19 C15         -2.7070    -0.1150    -4.8740 ca         1 BRF      -0.153000
     20 C16         -0.1800    -0.2020     3.4540 cp         1 BRF      -0.057000
     21 F1          -1.6860    -0.0940    -7.0220 f          1 BRF      -0.198000
     22 C17         -0.2400    -0.2760     4.9480 cp         1 BRF      -0.051000
     23 C18         -0.2200     0.8860     5.7680 ca         1 BRF       0.177000
     24 C19         -0.3130    -1.5370     5.5940 ca         1 BRF      -0.081000
     25 C20         -0.2780     0.7860     7.1690 ca         1 BRF      -0.159000
     26 C21         -0.3560    -0.4740     7.7840 ca         1 BRF      -0.094000
     27 C22         -0.3720    -1.6350     6.9950 ca         1 BRF      -0.132000
     28 F2          -0.1140     2.1180     5.2200 f          1 BRF      -0.175000
     29 H1C1         3.0350    -0.8050    -0.8520 hc         1 BRF       0.042033
     30 H1C2         3.2500     0.8190    -1.5230 hc         1 BRF       0.042033
     31 H1C3         2.4760     0.6250     0.0340 hc         1 BRF       0.042033
     32 H8          -1.5300     1.5040     0.7960 ha         1 BRF       0.127000
     33 H9           1.3460    -1.7270     0.7850 ha         1 BRF       0.127000
     34 H10          0.5780    -0.0010    -5.7520 ha         1 BRF       0.161000
     35 H11         -3.4640    -0.1320    -2.8530 ha         1 BRF       0.114000
     36 H12         -1.6360     1.3990     3.2540 ha         1 BRF       0.108000
     37 H13          1.2610    -1.8120     3.2430 ha         1 BRF       0.108000
     38 H15         -3.6920    -0.1540    -5.3300 ha         1 BRF       0.112000
     39 H19         -0.3350    -2.4470     4.9990 ha         1 BRF       0.122000
     40 H20         -0.2570     1.6870     7.7750 ha         1 BRF       0.125000
     41 H21         -0.4010    -0.5510     8.8690 ha         1 BRF       0.109000
     42 H22         -0.4320    -2.6120     7.4690 ha         1 BRF       0.112000
@<TRIPOS>BOND
     1     1     2 1   
     2     1    29 1   
     3     1    30 1   
     4     1    31 1   
     5     2     3 ar  
     6     2     4 ar  
     7     3     5 ar  
     8     3     7 1   
     9     4     6 1   
    10     4     8 ar  
    11     5     9 ar  
    12     6    12 1   
    13     6    13 1   
    14     7    10 ar  
    15     7    11 ar  
    16     8     9 ar  
    17     8    14 ar  
    18     9    15 ar  
    19    10    16 ar  
    20    10    32 1   
    21    11    17 ar  
    22    11    33 1   
    23    14    18 ar  
    24    14    34 1   
    25    15    19 ar  
    26    15    35 1   
    27    16    20 ar  
    28    16    36 1   
    29    17    20 ar  
    30    17    37 1   
    31    18    19 ar  
    32    18    21 1   
    33    19    38 1   
    34    20    22 1   
    35    22    23 ar  
    36    22    24 ar  
    37    23    25 ar  
    38    23    28 1   
    39    24    27 ar  
    40    24    39 1   
    41    25    26 ar  
    42    25    40 1   
    43    26    27 ar  
    44    26    41 1   
    45    27    42 1   
@<TRIPOS>SUBSTRUCTURE
     1 BRF         1 TEMP              0 ****  ****    0 ROOT
