@<TRIPOS>MOLECULE
BRG
   16    17     1     0     0
SMALL
bcc


@<TRIPOS>ATOM
      1 N9           1.1700     0.0100    -0.3200 nc         1 BRG      -0.634000
      2 C4           0.7050    -0.0070     0.9600 cc         1 BRG       0.618300
      3 N3           1.4800     0.0020     2.0620 nc         1 BRG      -0.732700
      4 C2           0.8150    -0.0120     3.1870 cd         1 BRG       0.717800
      5 N2           1.4710    -0.0570     4.3560 nv         1 BRG      -0.938800
      6 N1          -0.5530    -0.0170     3.2550 ns         1 BRG      -0.516400
      7 C6          -1.4260    -0.0250     2.1680 c          1 BRG       0.769100
      8 O6          -2.6370    -0.0250     2.3170 o          1 BRG      -0.618500
      9 C5          -0.6790    -0.0270     0.9620 cd         1 BRG      -0.372200
     10 N7          -1.0530    -0.0250    -0.3590 na         1 BRG      -0.252900
     11 C8           0.0900    -0.0020    -1.0570 cd         1 BRG       0.489700
     12 BR           0.0980     0.0040    -2.9070 br         1 BRG      -0.080200
     13 H21          2.4660     0.0880     4.3390 hn         1 BRG       0.447800
     14 H22          1.0030     0.1310     5.2250 hn         1 BRG       0.447800
     15 H1          -0.9890    -0.0210     4.1680 hn         1 BRG       0.324500
     16 H7          -1.9930    -0.0370    -0.7250 hn         1 BRG       0.331700
@<TRIPOS>BOND
     1     1     2 1   
     2     1    11 2   
     3     2     3 1   
     4     2     9 2   
     5     3     4 2   
     6     4     5 1   
     7     4     6 1   
     8     5    13 1   
     9     5    14 1   
    10     6     7 1   
    11     6    15 1   
    12     7     8 2   
    13     7     9 1   
    14     9    10 1   
    15    10    11 1   
    16    10    16 1   
    17    11    12 1   
@<TRIPOS>SUBSTRUCTURE
     1 BRG         1 TEMP              0 ****  ****    0 ROOT
