@<TRIPOS>MOLECULE
BRG
   16    17     1     0     0
SMALL
No Charge or Current Charge


@<TRIPOS>ATOM
      1 N9           1.1870    -0.0160    -0.2880 nc         1 BRG      -0.634000
      2 C4           0.6950    -0.0340     0.9730 cc         1 BRG       0.553000
      3 N3           1.4590    -0.0600     2.1040 nc         1 BRG      -0.732700
      4 C2           0.7500    -0.0720     3.1980 cd         1 BRG       0.717800
      5 N2           1.4530    -0.0940     4.3150 nv         1 BRG      -1.049200
      6 N1          -0.5880    -0.0620     3.3130 ns         1 BRG      -0.449400
      7 C6          -1.4170    -0.0390     2.2470 c          1 BRG       0.626600
      8 O6          -2.6330    -0.0340     2.3340 o          1 BRG      -0.543000
      9 C5          -0.6630    -0.0220     0.9990 cd         1 BRG      -0.357600
     10 N7          -1.0510     0.0050    -0.3370 na         1 BRG      -0.252500
     11 C8           0.1180     0.0070    -1.0730 cd         1 BRG       0.489700
     12 Br           0.1860     0.0390    -2.9570 br         1 BRG      -0.080200
     13 H21          2.4380     0.0920     4.1740 hn         1 BRG       0.503000
     14 H22          1.0450     0.3470     5.1310 hn         1 BRG       0.503000
     15 H1          -1.0230    -0.0970     4.2200 hn         1 BRG       0.324500
     16 H7          -1.9900     0.0190    -0.7210 hn         1 BRG       0.382000
@<TRIPOS>BOND
     1     1     2 1   
     2     1    11 2   
     3     2     3 1   
     4     2     9 2   
     5     3     4 2   
     6     4     5 1   
     7     4     6 1   
     8     5    13 1   
     9     5    14 1   
    10     6     7 1   
    11     6    15 1   
    12     7     8 2   
    13     7     9 1   
    14     9    10 1   
    15    10    11 1   
    16    10    16 1   
    17    11    12 1   
@<TRIPOS>SUBSTRUCTURE
     1 BRG         1 TEMP              0 ****  ****    0 ROOT
