@<TRIPOS>MOLECULE
BRH
   19    19     1     0     0
SMALL
No Charge or Current Charge


@<TRIPOS>ATOM
      1 O1           4.4370     0.9560     0.1720 o          1 BRH      -0.724000
      2 C1           3.5940     0.0690     0.1550 c          1 BRH       0.696000
      3 O2           3.8280    -1.0840     0.4940 o          1 BRH      -0.724000
      4 C2           2.1700     0.4000    -0.4570 c3         1 BRH       0.016500
      5 N1           1.7040    -0.4970    -1.5740 n8         1 BRH      -1.001200
      6 C3           1.0950     0.4550     0.6560 c3         1 BRH      -0.119700
      7 C4          -0.2330     0.9960     0.2010 cc         1 BRH       0.322300
      8 C5          -1.4660     0.4190     0.1130 cd         1 BRH      -0.280900
      9 Br1         -1.9510    -1.3640     0.5200 br         1 BRH      -0.062100
     10 C6          -2.3050     1.4400    -0.3490 cd         1 BRH       0.520300
     11 O3          -3.6150     1.2850    -0.5740 oh         1 BRH      -0.631300
     12 N2          -1.7060     2.5930    -0.5420 nc         1 BRH      -0.417300
     13 O4          -0.3330     2.3180    -0.1790 os         1 BRH      -0.060700
     14 H2           2.2520     1.4130    -0.8780 h1         1 BRH       0.053700
     15 H3           2.3920    -0.4680    -2.3380 hn         1 BRH       0.388500
     16 H4           1.7620    -1.4720    -1.2520 hn         1 BRH       0.388500
     17 H5           0.9640    -0.5440     1.0870 hc         1 BRH       0.078700
     18 H6           1.4660     1.0900     1.4700 hc         1 BRH       0.078700
     19 H7          -3.7860     0.3470    -0.3490 ho         1 BRH       0.479000
@<TRIPOS>BOND
     1     1     2 1   
     2     2     3 1   
     3     2     4 1   
     4     4     5 1   
     5     4     6 1   
     6     4    14 1   
     7     5    15 1   
     8     5    16 1   
     9     6     7 1   
    10     6    17 1   
    11     6    18 1   
    12     7     8 2   
    13     7    13 1   
    14     8     9 1   
    15     8    10 1   
    16    10    11 1   
    17    10    12 2   
    18    11    19 1   
    19    12    13 1   
@<TRIPOS>SUBSTRUCTURE
     1 BRH         1 TEMP              0 ****  ****    0 ROOT
