@<TRIPOS>MOLECULE
BRH
   19    19     1     0     0
SMALL
abcg2


@<TRIPOS>ATOM
      1 O1           4.0130     0.8160     0.9140 o          1 BRH      -0.724000
      2 C1           3.5520     0.0360     0.0550 c          1 BRH       0.696000
      3 O2           4.1100    -0.9690    -0.4200 o          1 BRH      -0.724000
      4 C2           2.1400     0.3890    -0.4850 c3         1 BRH       0.016500
      5 N1           1.5560    -0.5520    -1.4230 n8         1 BRH      -1.001200
      6 C3           1.1750     0.5950     0.6920 c3         1 BRH      -0.119700
      7 C4          -0.1700     1.0220     0.2490 cc         1 BRH       0.322300
      8 C5          -1.3580     0.3810     0.1210 cd         1 BRH      -0.280900
      9 BR1         -1.7590    -1.3900     0.4800 br         1 BRH      -0.062100
     10 C6          -2.2420     1.3720    -0.3810 cd         1 BRH       0.520300
     11 O3          -3.5260     1.2730    -0.6870 oh         1 BRH      -0.631300
     12 N2          -1.6310     2.5080    -0.5380 nc         1 BRH      -0.417300
     13 O4          -0.3360     2.2840    -0.1420 os         1 BRH      -0.060700
     14 H2           2.2370     1.3510    -1.0040 h1         1 BRH       0.053700
     15 H3           2.2050    -0.6860    -2.1880 hn         1 BRH       0.388500
     16 H4           1.4990    -1.4610    -0.9770 hn         1 BRH       0.388500
     17 H5           1.0750    -0.3370     1.2540 hc         1 BRH       0.078700
     18 H6           1.5890     1.3360     1.3760 hc         1 BRH       0.078700
     19 H7          -3.8600     0.3830    -0.5200 ho         1 BRH       0.479000
@<TRIPOS>BOND
     1     1     2 1   
     2     2     3 1   
     3     2     4 1   
     4     4     5 1   
     5     4     6 1   
     6     4    14 1   
     7     5    15 1   
     8     5    16 1   
     9     6     7 1   
    10     6    17 1   
    11     6    18 1   
    12     7     8 2   
    13     7    13 1   
    14     8     9 1   
    15     8    10 1   
    16    10    11 1   
    17    10    12 2   
    18    11    19 1   
    19    12    13 1   
@<TRIPOS>SUBSTRUCTURE
     1 BRH         1 TEMP              0 ****  ****    0 ROOT
