@<TRIPOS>MOLECULE
BRJ
    9     8     1     0     0
SMALL
bcc


@<TRIPOS>ATOM
      1 OB1          0.8540     0.2170     2.1400 oh         1 BRJ      -0.585800
      2 CB1         -0.4080    -0.3380     1.8800 c3         1 BRJ       0.141400
      3 CB          -1.0050     0.3100     0.6600 c3         1 BRJ       0.003000
      4 BR1          0.0830    -0.0220    -0.9470 br         1 BRJ      -0.178400
      5 HB1          1.2410    -0.2560     2.8830 ho         1 BRJ       0.409000
      6 HB11        -0.3660    -1.4240     1.7420 h1         1 BRJ       0.027200
      7 HB12        -1.1180    -0.1480     2.6990 h1         1 BRJ       0.027200
      8 HB1A        -1.9960    -0.0950     0.4620 h1         1 BRJ       0.078200
      9 HB2         -1.0770     1.3920     0.7680 h1         1 BRJ       0.078200
@<TRIPOS>BOND
     1     1     2 1   
     2     1     5 1   
     3     2     3 1   
     4     2     6 1   
     5     2     7 1   
     6     3     4 1   
     7     3     8 1   
     8     3     9 1   
@<TRIPOS>SUBSTRUCTURE
     1 BRJ         1 TEMP              0 ****  ****    0 ROOT
