@<TRIPOS>MOLECULE
BRJ
    9     8     1     0     0
SMALL
No Charge or Current Charge


@<TRIPOS>ATOM
      1 OB1          0.8930     0.2020     2.1620 oh         1 BRJ      -0.648000
      2 CB1         -0.4110    -0.3360     1.8890 c3         1 BRJ       0.164600
      3 CB          -1.0210     0.3160     0.6290 c3         1 BRJ       0.085600
      4 Br1          0.0650    -0.0170    -1.0180 br         1 BRJ      -0.261000
      5 HB1          1.2340    -0.2630     2.9590 ho         1 BRJ       0.448000
      6 HB11        -0.3560    -1.4220     1.7390 h1         1 BRJ       0.027200
      7 HB12        -1.0810    -0.1530     2.7400 h1         1 BRJ       0.027200
      8 HB1A        -2.0200    -0.0940     0.4360 h1         1 BRJ       0.078200
      9 HB2         -1.0940     1.4030     0.7530 h1         1 BRJ       0.078200
@<TRIPOS>BOND
     1     1     2 1   
     2     1     5 1   
     3     2     3 1   
     4     2     6 1   
     5     2     7 1   
     6     3     4 1   
     7     3     8 1   
     8     3     9 1   
@<TRIPOS>SUBSTRUCTURE
     1 BRJ         1 TEMP              0 ****  ****    0 ROOT
