@<TRIPOS>MOLECULE
BRK
   42    44     1     0     0
SMALL
No Charge or Current Charge


@<TRIPOS>ATOM
      1 CAB          3.9330     4.4520    -1.8720 c3         1 BRK       0.148900
      2 OAP          4.5260     3.6570    -0.8290 os         1 BRK      -0.340100
      3 CAU          4.0550     2.4010    -0.5030 ca         1 BRK       0.158100
      4 CAJ          4.7010     1.7060     0.5280 ca         1 BRK      -0.185500
      5 CAL          4.2680     0.4230     0.9050 ca         1 BRK      -0.033000
      6 CAI          2.9690     1.7980    -1.1700 ca         1 BRK      -0.185500
      7 CAK          2.5320     0.5150    -0.7940 ca         1 BRK      -0.033000
      8 CAW          3.1660    -0.1780     0.2620 ca         1 BRK      -0.188600
      9 CAR          2.7350    -1.5660     0.6810 c          1 BRK       0.652900
     10 OAD          3.5760    -2.3990     1.0040 o          1 BRK      -0.616100
     11 CAY          1.3130    -1.9320     0.5100 cc         1 BRK      -0.330600
     12 SAQ         -0.0520    -0.8080     0.6140 ss         1 BRK      -0.158800
     13 CAV          0.9210    -3.1390     0.0050 cd         1 BRK       0.458000
     14 NAC          1.6280    -4.2210    -0.3130 nv         1 BRK      -0.964000
     15 NAM         -0.3970    -3.1910    -0.2560 na         1 BRK      -0.784200
     16 CAX         -1.0960    -2.0630    -0.0150 cc         1 BRK       0.666100
     17 NAN         -2.3570    -1.9320    -0.2390 nf         1 BRK      -0.641100
     18 CAS         -3.1540    -0.7840    -0.0390 ca         1 BRK       0.118400
     19 CAE         -3.2920     0.1660    -1.0660 ca         1 BRK      -0.080000
     20 CAG         -4.0790     1.3140    -0.8630 ca         1 BRK      -0.160500
     21 CAT         -4.7330     1.5200     0.3640 ca         1 BRK       0.132100
     22 OAO         -5.4910     2.6640     0.5060 os         1 BRK      -0.341100
     23 CAA         -6.1980     2.9700     1.7210 c3         1 BRK       0.148900
     24 CAH         -4.5950     0.5640     1.3960 ca         1 BRK      -0.160500
     25 CAF         -3.8070    -0.5840     1.1900 ca         1 BRK      -0.080000
     26 HAB1         3.9970     3.9370    -2.8390 h1         1 BRK       0.042033
     27 HAB2         2.8780     4.6590    -1.6510 h1         1 BRK       0.042033
     28 HAB3         4.4570     5.4110    -1.9620 h1         1 BRK       0.042033
     29 HAJ          5.5450     2.1630     1.0390 ha         1 BRK       0.123500
     30 HAL          4.7850    -0.1000     1.7090 ha         1 BRK       0.125500
     31 HAI          2.4570     2.3020    -1.9850 ha         1 BRK       0.123500
     32 HAK          1.7150     0.0580    -1.3470 ha         1 BRK       0.125500
     33 HAC1         1.1580    -5.1190    -0.3590 hn         1 BRK       0.521500
     34 HAC2         2.5880    -4.2540     0.0250 hn         1 BRK       0.521500
     35 HAM         -0.8560    -3.9940    -0.6540 hn         1 BRK       0.519000
     36 HAE         -2.7890     0.0140    -2.0180 ha         1 BRK       0.123000
     37 HAG         -4.1830     2.0470    -1.6590 ha         1 BRK       0.123000
     38 HAA1        -6.7340     3.9220     1.6190 h1         1 BRK       0.040367
     39 HAA2        -6.9340     2.1890     1.9510 h1         1 BRK       0.040367
     40 HAA3        -5.5030     3.0600     2.5650 h1         1 BRK       0.040367
     41 HAH         -5.0870     0.6930     2.3550 ha         1 BRK       0.123000
     42 HAF         -3.7010    -1.3180     1.9850 ha         1 BRK       0.123000
@<TRIPOS>BOND
     1     1     2 1   
     2     1    26 1   
     3     1    27 1   
     4     1    28 1   
     5     2     3 1   
     6     3     4 ar  
     7     3     6 ar  
     8     4     5 ar  
     9     4    29 1   
    10     5     8 ar  
    11     5    30 1   
    12     6     7 ar  
    13     6    31 1   
    14     7     8 ar  
    15     7    32 1   
    16     8     9 1   
    17     9    10 2   
    18     9    11 1   
    19    11    12 1   
    20    11    13 2   
    21    12    16 1   
    22    13    14 1   
    23    13    15 1   
    24    14    33 1   
    25    14    34 1   
    26    15    16 1   
    27    15    35 1   
    28    16    17 2   
    29    17    18 1   
    30    18    19 ar  
    31    18    25 ar  
    32    19    20 ar  
    33    19    36 1   
    34    20    21 ar  
    35    20    37 1   
    36    21    22 1   
    37    21    24 ar  
    38    22    23 1   
    39    23    38 1   
    40    23    39 1   
    41    23    40 1   
    42    24    25 ar  
    43    24    41 1   
    44    25    42 1   
@<TRIPOS>SUBSTRUCTURE
     1 BRK         1 TEMP              0 ****  ****    0 ROOT
