@<TRIPOS>MOLECULE
BRK
   42    44     1     0     0
SMALL
abcg2


@<TRIPOS>ATOM
      1 CAB          3.5800     4.7810    -0.8870 c3         1 BRK       0.148900
      2 OAP          4.1850     3.8150    -0.0480 os         1 BRK      -0.340100
      3 CAU          3.7580     2.5450    -0.1120 ca         1 BRK       0.158100
      4 CAJ          4.3880     1.6360     0.7450 ca         1 BRK      -0.185500
      5 CAL          4.0190     0.3080     0.7410 ca         1 BRK      -0.033000
      6 CAI          2.7550     2.0930    -0.9670 ca         1 BRK      -0.185500
      7 CAK          2.3810     0.7560    -0.9440 ca         1 BRK      -0.033000
      8 CAW          2.9940    -0.1540    -0.0900 ca         1 BRK      -0.188600
      9 CAR          2.6550    -1.6030    -0.0780 c          1 BRK       0.652900
     10 OAD          3.5720    -2.4330    -0.0080 o          1 BRK      -0.616100
     11 CAY          1.2900    -1.9990    -0.1160 cc         1 BRK      -0.330600
     12 SAQ         -0.1110    -0.9160    -0.0010 ss         1 BRK      -0.158800
     13 CAV          0.8640    -3.3250    -0.1180 cd         1 BRK       0.458000
     14 NAC          1.6290    -4.4060    -0.1730 nv         1 BRK      -0.964000
     15 NAM         -0.4870    -3.4470    -0.0640 na         1 BRK      -0.784200
     16 CAX         -1.2180    -2.2840    -0.0200 cc         1 BRK       0.666100
     17 NAN         -2.4840    -2.2790    -0.0290 nf         1 BRK      -0.641100
     18 CAS         -3.1730    -1.0640     0.0440 ca         1 BRK       0.118400
     19 CAE         -4.0540    -0.7170    -0.9830 ca         1 BRK      -0.080000
     20 CAG         -4.7740     0.4610    -0.9360 ca         1 BRK      -0.160500
     21 CAT         -4.6440     1.3270     0.1520 ca         1 BRK       0.132100
     22 OAO         -5.3880     2.4520     0.1140 os         1 BRK      -0.341100
     23 CAA         -5.2890     3.3590     1.1920 c3         1 BRK       0.148900
     24 CAH         -3.7840     0.9840     1.1900 ca         1 BRK      -0.160500
     25 CAF         -3.0590    -0.2020     1.1310 ca         1 BRK      -0.080000
     26 HAB1         3.7170     4.5450    -1.9460 h1         1 BRK       0.042033
     27 HAB2         2.5110     4.8840    -0.6840 h1         1 BRK       0.042033
     28 HAB3         4.0710     5.7260    -0.6720 h1         1 BRK       0.042033
     29 HAJ          5.1720     1.9840     1.4060 ha         1 BRK       0.123500
     30 HAL          4.5250    -0.3810     1.4060 ha         1 BRK       0.125500
     31 HAI          2.2590     2.7580    -1.6600 ha         1 BRK       0.123500
     32 HAK          1.6190     0.4310    -1.6420 ha         1 BRK       0.125500
     33 HAC1         1.2450    -5.3320    -0.0990 hn         1 BRK       0.521500
     34 HAC2         2.6280    -4.2780    -0.1240 hn         1 BRK       0.521500
     35 HAM         -0.9640    -4.3380    -0.0760 hn         1 BRK       0.519000
     36 HAE         -4.1670    -1.3830    -1.8290 ha         1 BRK       0.123000
     37 HAG         -5.4470     0.7180    -1.7450 ha         1 BRK       0.123000
     38 HAA1        -5.9590     4.1850     0.9660 h1         1 BRK       0.040367
     39 HAA2        -5.5970     2.9060     2.1390 h1         1 BRK       0.040367
     40 HAA3        -4.2750     3.7510     1.3060 h1         1 BRK       0.040367
     41 HAH         -3.6670     1.6190     2.0580 ha         1 BRK       0.123000
     42 HAF         -2.4130    -0.4590     1.9610 ha         1 BRK       0.123000
@<TRIPOS>BOND
     1     1     2 1   
     2     1    26 1   
     3     1    27 1   
     4     1    28 1   
     5     2     3 1   
     6     3     4 ar  
     7     3     6 ar  
     8     4     5 ar  
     9     4    29 1   
    10     5     8 ar  
    11     5    30 1   
    12     6     7 ar  
    13     6    31 1   
    14     7     8 ar  
    15     7    32 1   
    16     8     9 1   
    17     9    10 2   
    18     9    11 1   
    19    11    12 1   
    20    11    13 2   
    21    12    16 1   
    22    13    14 1   
    23    13    15 1   
    24    14    33 1   
    25    14    34 1   
    26    15    16 1   
    27    15    35 1   
    28    16    17 2   
    29    17    18 1   
    30    18    19 ar  
    31    18    25 ar  
    32    19    20 ar  
    33    19    36 1   
    34    20    21 ar  
    35    20    37 1   
    36    21    22 1   
    37    21    24 ar  
    38    22    23 1   
    39    23    38 1   
    40    23    39 1   
    41    23    40 1   
    42    24    25 ar  
    43    24    41 1   
    44    25    42 1   
@<TRIPOS>SUBSTRUCTURE
     1 BRK         1 TEMP              0 ****  ****    0 ROOT
