@<TRIPOS>MOLECULE
BRL
   44    46     1     0     0
SMALL
bcc


@<TRIPOS>ATOM
      1 S1          -0.8880    -0.8180     3.8730 ss         1 BRL      -0.210700
      2 O2          -2.4800    -0.9240     5.9710 o          1 BRL      -0.539500
      3 O4           1.5280     1.2280     6.0730 o          1 BRL      -0.563500
      4 O13          0.7050    -0.7100    -2.1620 os         1 BRL      -0.306900
      5 N3          -0.4990     0.1990     6.2150 ns         1 BRL      -0.617500
      6 N16          1.0620    -0.4530    -4.9790 nh         1 BRL      -0.781300
      7 N18         -1.1750    -1.0160    -4.8190 nb         1 BRL      -0.740000
      8 C2          -1.4360    -0.5330     5.5260 c          1 BRL       0.735100
      9 C4           0.6470     0.5760     5.5730 c          1 BRL       0.717500
     10 C5           0.6690     0.0830     4.1380 c5         1 BRL      -0.085600
     11 C6           0.8440     1.2350     3.1450 c3         1 BRL       0.001900
     12 C7           0.8380     0.7430     1.7250 ca         1 BRL      -0.142300
     13 C8          -0.2900     0.8770     0.9160 ca         1 BRL      -0.076500
     14 C9          -0.3070     0.3890    -0.3780 ca         1 BRL      -0.191500
     15 C10          0.8130    -0.2600    -0.9000 ca         1 BRL       0.154100
     16 C11          1.9480    -0.4040    -0.1040 ca         1 BRL      -0.191500
     17 C12          1.9470     0.0970     1.1920 ca         1 BRL      -0.076500
     18 C14          1.8250    -1.3060    -2.7840 c3         1 BRL       0.108400
     19 C15          1.4460    -1.6230    -4.2200 c3         1 BRL       0.225800
     20 C16          2.0990     0.5160    -5.2420 c3         1 BRL       0.207100
     21 C17         -0.2530    -0.0900    -5.0870 ca         1 BRL       0.692200
     22 C19         -2.4560    -0.7080    -4.9500 ca         1 BRL       0.451200
     23 C20         -2.9220     0.5290    -5.3580 ca         1 BRL      -0.306300
     24 C21         -1.9650     1.4990    -5.6380 ca         1 BRL      -0.056000
     25 C22         -0.6240     1.2050    -5.5050 ca         1 BRL      -0.313300
     26 HN3         -0.6690     0.4560     7.1800 hn         1 BRL       0.351500
     27 H5           1.4970    -0.6220     4.0380 h1         1 BRL       0.114700
     28 H61          1.7920     1.7260     3.3730 hc         1 BRL       0.066700
     29 H62          0.0510     1.9700     3.2980 hc         1 BRL       0.066700
     30 H8          -1.1710     1.3760     1.3020 ha         1 BRL       0.132000
     31 H9          -1.1880     0.5060    -0.9970 ha         1 BRL       0.143000
     32 H11          2.8360    -0.9000    -0.4690 ha         1 BRL       0.143000
     33 H12          2.8400    -0.0230     1.7950 ha         1 BRL       0.132000
     34 H141         2.1140    -2.2340    -2.2770 h1         1 BRL       0.036200
     35 H142         2.6880    -0.6310    -2.7530 h1         1 BRL       0.036200
     36 H151         0.6330    -2.3440    -4.2430 h1         1 BRL       0.075700
     37 H152         2.3110    -2.0900    -4.6960 h1         1 BRL       0.075700
     38 H161         3.0650     0.0150    -5.2090 h1         1 BRL       0.036367
     39 H162         1.9950     0.9480    -6.2380 h1         1 BRL       0.036367
     40 H163         2.1210     1.3370    -4.5170 h1         1 BRL       0.036367
     41 H19         -3.1590    -1.5020    -4.7170 h4         1 BRL       0.013100
     42 H20         -3.9810     0.7250    -5.4470 ha         1 BRL       0.141000
     43 H21         -2.2640     2.4900    -5.9570 ha         1 BRL       0.130000
     44 H22          0.1130     1.9690    -5.7070 ha         1 BRL       0.138000
@<TRIPOS>BOND
     1     1     8 1   
     2     1    10 1   
     3     2     8 2   
     4     3     9 2   
     5     4    15 1   
     6     4    18 1   
     7     5     8 1   
     8     5     9 1   
     9     5    26 1   
    10     6    19 1   
    11     6    20 1   
    12     6    21 1   
    13     7    21 ar  
    14     7    22 ar  
    15     9    10 1   
    16    10    11 1   
    17    10    27 1   
    18    11    12 1   
    19    11    28 1   
    20    11    29 1   
    21    12    13 ar  
    22    12    17 ar  
    23    13    14 ar  
    24    13    30 1   
    25    14    15 ar  
    26    14    31 1   
    27    15    16 ar  
    28    16    17 ar  
    29    16    32 1   
    30    17    33 1   
    31    18    19 1   
    32    18    34 1   
    33    18    35 1   
    34    19    36 1   
    35    19    37 1   
    36    20    38 1   
    37    20    39 1   
    38    20    40 1   
    39    21    25 ar  
    40    22    23 ar  
    41    22    41 1   
    42    23    24 ar  
    43    23    42 1   
    44    24    25 ar  
    45    24    43 1   
    46    25    44 1   
@<TRIPOS>SUBSTRUCTURE
     1 BRL         1 TEMP              0 ****  ****    0 ROOT
