@<TRIPOS>MOLECULE
BRL
   44    46     1     0     0
SMALL
No Charge or Current Charge


@<TRIPOS>ATOM
      1 S1          -0.9130    -0.9260     4.0990 ss         1 BRL      -0.258600
      2 O2          -2.3340    -1.0140     6.4110 o          1 BRL      -0.464000
      3 O4           1.4750     1.4670     6.1720 o          1 BRL      -0.488000
      4 O13          0.7260    -0.7390    -2.2010 os         1 BRL      -0.330100
      5 N3          -0.4270     0.2360     6.3400 ns         1 BRL      -0.483500
      6 N16          1.1270    -0.5420    -5.1690 nh         1 BRL      -0.781300
      7 N18         -1.1380    -1.0490    -5.1650 nb         1 BRL      -0.740000
      8 C2          -1.3590    -0.5910     5.8140 c          1 BRL       0.592600
      9 C4           0.6570     0.7110     5.6750 c          1 BRL       0.575000
     10 C5           0.6230     0.1360     4.2400 c5         1 BRL      -0.037700
     11 C6           0.6170     1.2540     3.1680 c3         1 BRL       0.001900
     12 C7           0.6590     0.7220     1.7390 ca         1 BRL      -0.142300
     13 C8          -0.4890     0.7700     0.9250 ca         1 BRL      -0.058500
     14 C9          -0.4440     0.2750    -0.3890 ca         1 BRL      -0.173500
     15 C10          0.7430    -0.2700    -0.9040 ca         1 BRL       0.154100
     16 C11          1.8960    -0.3180    -0.0910 ca         1 BRL      -0.173500
     17 C12          1.8500     0.1760     1.2240 ca         1 BRL      -0.058500
     18 C14          1.8970    -1.2870    -2.8390 c3         1 BRL       0.131600
     19 C15          1.5450    -1.6790    -4.2970 c3         1 BRL       0.225800
     20 C16          2.2070     0.2680    -5.7730 c3         1 BRL       0.207100
     21 C17         -0.2030    -0.0830    -5.1760 ca         1 BRL       0.626900
     22 C19         -2.4340    -0.6730    -5.1740 ca         1 BRL       0.385900
     23 C20         -2.8420     0.6700    -5.1990 ca         1 BRL      -0.223000
     24 C21         -1.8700     1.6790    -5.2160 ca         1 BRL      -0.038000
     25 C22         -0.5240     1.2880    -5.2060 ca         1 BRL      -0.230000
     26 HN3         -0.5470     0.5220     7.3000 hn         1 BRL       0.351500
     27 H5           1.5130    -0.4940     4.1190 h1         1 BRL       0.114700
     28 H61          1.4800     1.9130     3.3270 hc         1 BRL       0.066700
     29 H62         -0.2660     1.8910     3.3090 hc         1 BRL       0.066700
     30 H8          -1.4180     1.1860     1.3100 ha         1 BRL       0.114000
     31 H9          -1.3320     0.3130    -1.0130 ha         1 BRL       0.125000
     32 H11          2.8290    -0.7340    -0.4600 ha         1 BRL       0.125000
     33 H12          2.7440     0.1350     1.8430 ha         1 BRL       0.114000
     34 H141         2.2430    -2.1800    -2.3030 h1         1 BRL       0.036200
     35 H142         2.7120    -0.5520    -2.8510 h1         1 BRL       0.036200
     36 H151         0.7700    -2.4570    -4.2670 h1         1 BRL       0.075700
     37 H152         2.4270    -2.1670    -4.7340 h1         1 BRL       0.075700
     38 H161         3.0590    -0.3660    -6.0510 h1         1 BRL       0.036367
     39 H162         1.8510     0.7660    -6.6850 h1         1 BRL       0.036367
     40 H163         2.5560     1.0320    -5.0650 h1         1 BRL       0.036367
     41 H19         -3.1720    -1.4750    -5.1610 h4         1 BRL       0.013100
     42 H20         -3.9000     0.9170    -5.2050 ha         1 BRL       0.123000
     43 H21         -2.1500     2.7310    -5.2350 ha         1 BRL       0.112000
     44 H22          0.2570     2.0400    -5.2080 ha         1 BRL       0.120000
@<TRIPOS>BOND
     1     1     8 1   
     2     1    10 1   
     3     2     8 2   
     4     3     9 2   
     5     4    15 1   
     6     4    18 1   
     7     5     8 1   
     8     5     9 1   
     9     5    26 1   
    10     6    19 1   
    11     6    20 1   
    12     6    21 1   
    13     7    21 ar  
    14     7    22 ar  
    15     9    10 1   
    16    10    11 1   
    17    10    27 1   
    18    11    12 1   
    19    11    28 1   
    20    11    29 1   
    21    12    13 ar  
    22    12    17 ar  
    23    13    14 ar  
    24    13    30 1   
    25    14    15 ar  
    26    14    31 1   
    27    15    16 ar  
    28    16    17 ar  
    29    16    32 1   
    30    17    33 1   
    31    18    19 1   
    32    18    34 1   
    33    18    35 1   
    34    19    36 1   
    35    19    37 1   
    36    20    38 1   
    37    20    39 1   
    38    20    40 1   
    39    21    25 ar  
    40    22    23 ar  
    41    22    41 1   
    42    23    24 ar  
    43    23    42 1   
    44    24    25 ar  
    45    24    43 1   
    46    25    44 1   
@<TRIPOS>SUBSTRUCTURE
     1 BRL         1 TEMP              0 ****  ****    0 ROOT
