@<TRIPOS>MOLECULE
BRM
    7     6     1     0     0
SMALL
bcc


@<TRIPOS>ATOM
      1 C1          -1.3930    -1.5850     0.6890 c          1 BRM       0.936600
      2 O1          -0.5010    -2.3450     1.0790 o          1 BRM      -0.818300
      3 O2          -2.6260    -1.7630     0.6920 o          1 BRM      -0.818300
      4 C2          -1.0250    -0.2070     0.1000 c3         1 BRM      -0.094000
      5 BR2          0.9030     0.1780     0.0720 br         1 BRM      -0.291400
      6 H21         -1.3710    -0.1290    -0.9310 h1         1 BRM       0.042200
      7 H22         -1.4930     0.5930     0.6730 h1         1 BRM       0.042200
@<TRIPOS>BOND
     1     1     2 1   
     2     1     3 1   
     3     1     4 1   
     4     4     5 1   
     5     4     6 1   
     6     4     7 1   
@<TRIPOS>SUBSTRUCTURE
     1 BRM         1 TEMP              0 ****  ****    0 ROOT
