@<TRIPOS>MOLECULE
BRM
    7     6     1     0     0
SMALL
No Charge or Current Charge


@<TRIPOS>ATOM
      1 C1          -1.4280    -1.5630     0.6780 c          1 BRM       0.726000
      2 O1          -0.9710    -2.6130     0.2440 o          1 BRM      -0.713000
      3 O2          -2.1840    -1.5010     1.6380 o          1 BRM      -0.713000
      4 C2          -0.9950    -0.2430     0.0010 c3         1 BRM      -0.011400
      5 Br2          0.6650     0.5910     0.7800 br         1 BRM      -0.374000
      6 H21         -0.7940    -0.4250    -1.0620 h1         1 BRM       0.042200
      7 H22         -1.8000     0.4970     0.0950 h1         1 BRM       0.042200
@<TRIPOS>BOND
     1     1     2 1   
     2     1     3 1   
     3     1     4 1   
     4     4     5 1   
     5     4     6 1   
     6     4     7 1   
@<TRIPOS>SUBSTRUCTURE
     1 BRM         1 TEMP              0 ****  ****    0 ROOT
