@<TRIPOS>MOLECULE
BRN
   36    37     1     0     0
SMALL
bcc


@<TRIPOS>ATOM
      1 C1          -0.8610     0.1400     2.3030 ca         1 BRN       0.194600
      2 C2          -1.6310     0.2430     3.4620 ca         1 BRN      -0.175000
      3 C3          -1.0330     0.1380     4.7030 ca         1 BRN      -0.073000
      4 C4           0.3410    -0.0610     4.8260 ca         1 BRN      -0.226900
      5 C5           1.0990    -0.1510     3.6590 ca         1 BRN      -0.073000
      6 C6           0.5160    -0.0600     2.4090 ca         1 BRN      -0.175000
      7 C7           0.9610    -0.1900     6.1710 ce         1 BRN       0.664800
      8 NA           0.3930    -0.7200     7.1870 n2         1 BRN      -0.844100
      9 NB           2.2440     0.2670     6.2610 nv         1 BRN      -0.918800
     10 N1          -1.5030     0.2380     1.0810 nu         1 BRN      -0.448700
     11 N           -0.8460     0.1360    -0.0450 n2         1 BRN      -0.025700
     12 N4          -1.5640     0.2200    -1.0590 ne         1 BRN      -0.326400
     13 C8          -0.8690     0.1080    -2.2710 ca         1 BRN       0.136400
     14 C9          -1.6470     0.1860    -3.4250 ca         1 BRN      -0.122500
     15 C10         -1.0690     0.0870    -4.6770 ca         1 BRN      -0.097000
     16 C11          0.3060    -0.0810    -4.8120 ca         1 BRN      -0.139900
     17 C12          1.0830    -0.1630    -3.6540 ca         1 BRN      -0.097000
     18 C13          0.5100    -0.0740    -2.3990 ca         1 BRN      -0.122500
     19 C14          0.9080    -0.1750    -6.1690 ce         1 BRN       0.656800
     20 N2           0.1840    -0.6000    -7.1320 n2         1 BRN      -0.823100
     21 N3           2.2290     0.1670    -6.2460 nv         1 BRN      -0.961800
     22 H2          -2.6990     0.4060     3.3900 ha         1 BRN       0.145500
     23 H3          -1.6520     0.2330     5.5860 ha         1 BRN       0.141500
     24 H5           2.1670    -0.3180     3.7170 ha         1 BRN       0.141500
     25 H6           1.1290    -0.1490     1.5240 ha         1 BRN       0.145500
     26 HA          -0.5070    -1.1100     6.9330 hn         1 BRN       0.387400
     27 HB1          2.6300     0.3100     7.1910 hn         1 BRN       0.411300
     28 HB2          2.5180     1.0340     5.6700 hn         1 BRN       0.411300
     29 HN1         -2.5110     0.3620     1.0440 hn         1 BRN       0.446800
     30 H1          -2.7160     0.3260    -3.3280 ha         1 BRN       0.146500
     31 H4          -1.6880     0.1500    -5.5620 ha         1 BRN       0.147500
     32 H7           2.1520    -0.3190    -3.7230 ha         1 BRN       0.147500
     33 H8           1.1380    -0.1490    -1.5230 ha         1 BRN       0.146500
     34 H9           0.6980    -0.5850    -8.0090 hn         1 BRN       0.371400
     35 HB'1         2.6220     0.2690    -7.1690 hn         1 BRN       0.403800
     36 HB'2         2.5820     0.8450    -5.5890 hn         1 BRN       0.403800
@<TRIPOS>BOND
     1     1     2 ar  
     2     1     6 ar  
     3     1    10 1   
     4     2     3 ar  
     5     2    22 1   
     6     3     4 ar  
     7     3    23 1   
     8     4     5 ar  
     9     4     7 1   
    10     5     6 ar  
    11     5    24 1   
    12     6    25 1   
    13     7     8 2   
    14     7     9 1   
    15     8    26 1   
    16     9    27 1   
    17     9    28 1   
    18    10    11 1   
    19    10    29 1   
    20    11    12 2   
    21    12    13 1   
    22    13    14 ar  
    23    13    18 ar  
    24    14    15 ar  
    25    14    30 1   
    26    15    16 ar  
    27    15    31 1   
    28    16    17 ar  
    29    16    19 1   
    30    17    18 ar  
    31    17    32 1   
    32    18    33 1   
    33    19    20 2   
    34    19    21 1   
    35    20    34 1   
    36    21    35 1   
    37    21    36 1   
@<TRIPOS>SUBSTRUCTURE
     1 BRN         1 TEMP              0 ****  ****    0 ROOT
