@<TRIPOS>MOLECULE
BRN
   36    37     1     0     0
SMALL
No Charge or Current Charge


@<TRIPOS>ATOM
      1 C1          -0.6600     0.4560     2.3580 ca         1 BRN       0.333000
      2 C2          -1.3320     0.9300     3.4960 ca         1 BRN      -0.157000
      3 C3          -0.9140     0.5560     4.7860 ca         1 BRN      -0.055000
      4 C4           0.2030    -0.2930     4.9620 ca         1 BRN      -0.226900
      5 C5           0.8640    -0.7840     3.8130 ca         1 BRN      -0.055000
      6 C6           0.4390    -0.4070     2.5260 ca         1 BRN      -0.157000
      7 C7           0.6260    -0.7270     6.3270 ce         1 BRN       0.664800
      8 NA          -0.1490    -0.7310     7.3300 n2         1 BRN      -0.844100
      9 NB           1.9320    -0.9590     6.5320 nv         1 BRN      -1.029200
     10 N1          -1.1060     0.8490     1.0880 nu         1 BRN      -0.642300
     11 N           -0.5530     0.4670    -0.0750 n2         1 BRN      -0.025700
     12 N4          -1.1530     0.9690    -1.0600 ne         1 BRN      -0.326400
     13 C8          -0.6320     0.6150    -2.3190 ca         1 BRN       0.136400
     14 C9          -1.1120    -0.5210    -2.9920 ca         1 BRN      -0.104500
     15 C10         -0.5950    -0.8740    -4.2510 ca         1 BRN      -0.079000
     16 C11          0.4010    -0.0850    -4.8740 ca         1 BRN      -0.139900
     17 C12          0.8900     1.0480    -4.1780 ca         1 BRN      -0.079000
     18 C13          0.3710     1.3960    -2.9180 ca         1 BRN      -0.104500
     19 C14          0.9670    -0.4910    -6.2040 ce         1 BRN       0.656800
     20 N2           0.8330    -1.6540    -6.6930 n2         1 BRN      -0.823100
     21 N3           1.5580     0.4580    -6.9630 nv         1 BRN      -1.072200
     22 H2          -2.1860     1.5930     3.3860 ha         1 BRN       0.127500
     23 H3          -1.4560     0.9470     5.6450 ha         1 BRN       0.123500
     24 H5           1.7040    -1.4690     3.9080 ha         1 BRN       0.123500
     25 H6           0.9680    -0.7960     1.6620 ha         1 BRN       0.127500
     26 HA          -1.1070    -0.5870     6.9850 hn         1 BRN       0.387400
     27 HB1          2.2020    -0.9160     7.5060 hn         1 BRN       0.466500
     28 HB2          2.5620    -0.5110     5.8770 hn         1 BRN       0.466500
     29 HN1         -1.9130     1.4740     1.0850 hn         1 BRN       0.502000
     30 H1          -1.8840    -1.1340    -2.5340 ha         1 BRN       0.128500
     31 H4          -0.9810    -1.7620    -4.7480 ha         1 BRN       0.129500
     32 H7           1.6830     1.6610    -4.6010 ha         1 BRN       0.129500
     33 H8           0.7540     2.2720    -2.4000 ha         1 BRN       0.128500
     34 H9           1.4710    -1.7380    -7.4910 hn         1 BRN       0.371400
     35 HB'1         1.5450     0.2950    -7.9630 hn         1 BRN       0.459000
     36 HB'2         1.3750     1.4150    -6.6820 hn         1 BRN       0.459000
@<TRIPOS>BOND
     1     1     2 ar  
     2     1     6 ar  
     3     1    10 1   
     4     2     3 ar  
     5     2    22 1   
     6     3     4 ar  
     7     3    23 1   
     8     4     5 ar  
     9     4     7 1   
    10     5     6 ar  
    11     5    24 1   
    12     6    25 1   
    13     7     8 2   
    14     7     9 1   
    15     8    26 1   
    16     9    27 1   
    17     9    28 1   
    18    10    11 1   
    19    10    29 1   
    20    11    12 2   
    21    12    13 1   
    22    13    14 ar  
    23    13    18 ar  
    24    14    15 ar  
    25    14    30 1   
    26    15    16 ar  
    27    15    31 1   
    28    16    17 ar  
    29    16    19 1   
    30    17    18 ar  
    31    17    32 1   
    32    18    33 1   
    33    19    20 2   
    34    19    21 1   
    35    20    34 1   
    36    21    35 1   
    37    21    36 1   
@<TRIPOS>SUBSTRUCTURE
     1 BRN         1 TEMP              0 ****  ****    0 ROOT
