@<TRIPOS>MOLECULE
BRP
   10     9     1     0     0
SMALL
bcc


@<TRIPOS>ATOM
      1 C1          -1.9840    -0.2010     0.6130 c2         1 BRP      -0.170000
      2 C2          -0.6900     0.0660     0.6870 c2         1 BRP      -0.066500
      3 C3           0.0410     0.4680     1.9280 c3         1 BRP       0.182600
      4 BR           0.3980    -0.0230    -0.8690 br         1 BRP      -0.097700
      5 O            1.1000    -0.4230     2.1640 oh         1 BRP      -0.581800
      6 H11         -2.4900    -0.4560    -0.3070 ha         1 BRP       0.129500
      7 H12         -2.5830    -0.1630     1.5150 ha         1 BRP       0.129500
      8 H31         -0.6890     0.4710     2.7480 h1         1 BRP       0.032700
      9 H32          0.3960     1.4980     1.8130 h1         1 BRP       0.032700
     10 H            1.7570     0.0260     2.7020 ho         1 BRP       0.409000
@<TRIPOS>BOND
     1     1     2 2   
     2     1     6 1   
     3     1     7 1   
     4     2     3 1   
     5     2     4 1   
     6     3     5 1   
     7     3     8 1   
     8     3     9 1   
     9     5    10 1   
@<TRIPOS>SUBSTRUCTURE
     1 BRP         1 TEMP              0 ****  ****    0 ROOT
