@<TRIPOS>MOLECULE
BRP
   10     9     1     0     0
SMALL
No Charge or Current Charge


@<TRIPOS>ATOM
      1 C1          -1.9280    -0.3610     0.6750 c2         1 BRP      -0.270000
      2 C2          -0.6980     0.1710     0.6130 c2         1 BRP      -0.066500
      3 C3           0.1290     0.5810     1.8190 c3         1 BRP       0.205800
      4 Br           0.1520     0.4690    -1.0700 br         1 BRP      -0.097700
      5 O            0.8440    -0.5520     2.3270 oh         1 BRP      -0.644000
      6 H11         -2.4770    -0.6380    -0.2250 ha         1 BRP       0.179500
      7 H12         -2.4250    -0.5400     1.6290 ha         1 BRP       0.179500
      8 H31         -0.5340     0.9910     2.5920 h1         1 BRP       0.032700
      9 H32          0.8310     1.3770     1.5340 h1         1 BRP       0.032700
     10 H            1.3610    -0.2350     3.1000 ho         1 BRP       0.448000
@<TRIPOS>BOND
     1     1     2 2   
     2     1     6 1   
     3     1     7 1   
     4     2     3 1   
     5     2     4 1   
     6     3     5 1   
     7     3     8 1   
     8     3     9 1   
     9     5    10 1   
@<TRIPOS>SUBSTRUCTURE
     1 BRP         1 TEMP              0 ****  ****    0 ROOT
