@<TRIPOS>MOLECULE
BRQ
   35    37     1     0     0
SMALL
abcg2


@<TRIPOS>ATOM
      1 CAL         -4.2640     1.7550    -4.4980 ca         1 BRQ      -0.094000
      2 CAS         -4.9370     1.9220    -5.6970 ca         1 BRQ       0.132000
      3 CL          -5.7300     3.4250    -6.0100 cl         1 BRQ      -0.136000
      4 CAF         -4.9780     0.9150    -6.6500 ca         1 BRQ      -0.068000
      5 CAE         -4.3430    -0.2880    -6.3860 ca         1 BRQ      -0.078000
      6 CAI         -3.6800    -0.4920    -5.1850 ca         1 BRQ      -0.124000
      7 CAT         -3.6410     0.5390    -4.2560 ca         1 BRQ      -0.071200
      8 NAN         -2.9680     0.3590    -3.0170 nu         1 BRQ      -0.318500
      9 CAV         -1.6820     0.1010    -2.9050 cc         1 BRQ       0.297700
     10 SAO         -0.8900    -0.1740    -1.4210 ss         1 BRQ       0.185200
     11 NAM         -0.8410     0.0230    -3.9420 na         1 BRQ      -0.355700
     12 CAR          0.4720    -0.2350    -3.6210 cc         1 BRQ       0.331900
     13 NAA          1.3810    -0.2960    -4.5750 nv         1 BRQ      -0.932000
     14 CAW          0.6430    -0.3980    -2.2560 cd         1 BRQ      -0.339600
     15 CAP          1.9050    -0.5960    -1.6060 c          1 BRQ       0.647900
     16 OAB          2.9540    -0.5790    -2.2430 o          1 BRQ      -0.538100
     17 CAU          1.9240    -0.7860    -0.1310 ca         1 BRQ      -0.201600
     18 CAJ          1.0710    -1.6850     0.5060 ca         1 BRQ      -0.048500
     19 CAG          1.1370    -1.8710     1.8790 ca         1 BRQ      -0.151500
     20 CAQ          2.0600    -1.1380     2.5990 ca         1 BRQ       0.214000
     21 F            2.1250    -1.3030     3.9250 f          1 BRQ      -0.155000
     22 CAH          2.9270    -0.2440     1.9960 ca         1 BRQ      -0.151500
     23 CAK          2.8630    -0.0830     0.6240 ca         1 BRQ      -0.048500
     24 HAL         -4.2210     2.5490    -3.7650 ha         1 BRQ       0.149000
     25 HAF         -5.5030     1.0650    -7.5830 ha         1 BRQ       0.158000
     26 HAE         -4.3780    -1.0820    -7.1190 ha         1 BRQ       0.146000
     27 HAI         -3.2180    -1.4470    -4.9710 ha         1 BRQ       0.133000
     28 HAM         -1.1370     0.2100    -4.8940 hn         1 BRQ       0.388000
     29 H1           2.3450    -0.4310    -4.3170 hn         1 BRQ       0.543500
     30 H2           1.1500    -0.1590    -5.5450 hn         1 BRQ       0.543500
     31 HAJ          0.3730    -2.2870    -0.0630 ha         1 BRQ       0.127000
     32 HAK          3.5400     0.6090     0.1390 ha         1 BRQ       0.127000
     33 HAG          0.4880    -2.5800     2.3750 ha         1 BRQ       0.149000
     34 HAH          3.6420     0.3110     2.5890 ha         1 BRQ       0.149000
     35 HAN         -3.5020     0.4840    -2.1670 hn         1 BRQ       0.393000
@<TRIPOS>BOND
     1     1     2 ar  
     2     1     7 ar  
     3     1    24 1   
     4     2     3 1   
     5     2     4 ar  
     6     4     5 ar  
     7     4    25 1   
     8     5     6 ar  
     9     5    26 1   
    10     6     7 ar  
    11     6    27 1   
    12     7     8 1   
    13     8     9 2   
    14     8    35 1   
    15     9    10 1   
    16     9    11 1   
    17    10    14 1   
    18    11    12 1   
    19    11    28 1   
    20    12    13 1   
    21    12    14 2   
    22    13    29 1   
    23    13    30 1   
    24    14    15 1   
    25    15    16 2   
    26    15    17 1   
    27    17    18 ar  
    28    17    23 ar  
    29    18    19 ar  
    30    18    31 1   
    31    19    20 ar  
    32    19    33 1   
    33    20    21 1   
    34    20    22 ar  
    35    22    23 ar  
    36    22    34 1   
    37    23    32 1   
@<TRIPOS>SUBSTRUCTURE
     1 BRQ         1 TEMP              0 ****  ****    0 ROOT
