@<TRIPOS>MOLECULE
BRQ
   35    37     1     0     0
SMALL
No Charge or Current Charge


@<TRIPOS>ATOM
      1 CAL         -4.5220     1.7460    -4.4510 ca         1 BRQ      -0.094000
      2 CAS         -5.3210     1.8740    -5.6000 ca         1 BRQ       0.132000
      3 Cl          -6.4240     3.2360    -5.7530 cl         1 BRQ      -0.136000
      4 CAF         -5.2430     0.9180    -6.6250 ca         1 BRQ      -0.068000
      5 CAE         -4.3660    -0.1730    -6.4970 ca         1 BRQ      -0.078000
      6 CAI         -3.5650    -0.3010    -5.3480 ca         1 BRQ      -0.124000
      7 CAT         -3.6300     0.6630    -4.3230 ca         1 BRQ      -0.071200
      8 NAN         -2.8430     0.5440    -3.1670 nu         1 BRQ      -0.318500
      9 CAV         -1.5250     0.1730    -2.9840 cc         1 BRQ       0.297700
     10 SAO         -0.7500    -0.0260    -1.4360 ss         1 BRQ       0.185200
     11 NAM         -0.6700    -0.0160    -4.0480 na         1 BRQ      -0.355700
     12 CAR          0.6020    -0.3590    -3.6490 cc         1 BRQ       0.331900
     13 NAA          1.5260    -0.5870    -4.6020 nv         1 BRQ      -0.932000
     14 CAW          0.7330    -0.4320    -2.2840 cd         1 BRQ      -0.339600
     15 CAP          2.0060    -0.7510    -1.5920 c          1 BRQ       0.647900
     16 OAB          3.0570    -0.9170    -2.2000 o          1 BRQ      -0.538100
     17 CAU          1.9860    -0.8610    -0.0910 ca         1 BRQ      -0.201600
     18 CAJ          1.1100    -1.7590     0.5580 ca         1 BRQ      -0.048500
     19 CAG          1.1160    -1.8610     1.9600 ca         1 BRQ      -0.151500
     20 CAQ          2.0020    -1.0800     2.7160 ca         1 BRQ       0.214000
     21 F            2.0080    -1.1810     4.0630 f          1 BRQ      -0.155000
     22 CAH          2.8890    -0.1990     2.0790 ca         1 BRQ      -0.151500
     23 CAK          2.8870    -0.0930     0.6770 ca         1 BRQ      -0.048500
     24 HAL         -4.5950     2.4970    -3.6680 ha         1 BRQ       0.149000
     25 HAF         -5.8640     1.0200    -7.5110 ha         1 BRQ       0.158000
     26 HAE         -4.3120    -0.9220    -7.2860 ha         1 BRQ       0.146000
     27 HAI         -2.9090    -1.1650    -5.2540 ha         1 BRQ       0.133000
     28 HAM         -0.9550     0.0880    -5.0100 hn         1 BRQ       0.388000
     29 H1           2.4920    -0.7160    -4.3010 hn         1 BRQ       0.543500
     30 H2           1.4010    -0.2260    -5.5450 hn         1 BRQ       0.543500
     31 HAJ          0.4310    -2.3830    -0.0210 ha         1 BRQ       0.127000
     32 HAK          3.5800     0.5900     0.1870 ha         1 BRQ       0.127000
     33 HAG          0.4400    -2.5490     2.4620 ha         1 BRQ       0.149000
     34 HAH          3.5770     0.3970     2.6720 ha         1 BRQ       0.149000
     35 HAN         -3.2630     0.9250    -2.3200 hn         1 BRQ       0.393000
@<TRIPOS>BOND
     1     1     2 ar  
     2     1     7 ar  
     3     1    24 1   
     4     2     3 1   
     5     2     4 ar  
     6     4     5 ar  
     7     4    25 1   
     8     5     6 ar  
     9     5    26 1   
    10     6     7 ar  
    11     6    27 1   
    12     7     8 1   
    13     8     9 2   
    14     8    35 1   
    15     9    10 1   
    16     9    11 1   
    17    10    14 1   
    18    11    12 1   
    19    11    28 1   
    20    12    13 1   
    21    12    14 2   
    22    13    29 1   
    23    13    30 1   
    24    14    15 1   
    25    15    16 2   
    26    15    17 1   
    27    17    18 ar  
    28    17    23 ar  
    29    18    19 ar  
    30    18    31 1   
    31    19    20 ar  
    32    19    33 1   
    33    20    21 1   
    34    20    22 ar  
    35    22    23 ar  
    36    22    34 1   
    37    23    32 1   
@<TRIPOS>SUBSTRUCTURE
     1 BRQ         1 TEMP              0 ****  ****    0 ROOT
