@<TRIPOS>MOLECULE
BRR
   27    26     1     0     0
SMALL
abcg2


@<TRIPOS>ATOM
      1 C10         -6.7850    36.0200    -5.7930 c3         1 BRR      -0.085100
      2 C9          -6.2640    36.2020    -4.3700 c3         1 BRR      -0.077400
      3 C8          -7.3770    36.4430    -3.3520 c3         1 BRR      -0.072400
      4 C7          -6.8550    36.6110    -1.9270 c3         1 BRR      -0.046400
      5 C6          -7.9470    36.9280    -0.9030 c3         1 BRR      -0.214700
      6 C11         -9.0300    35.8200    -0.8720 c          1 BRR       0.711000
      7 O12         -8.6550    34.6800    -0.4930 o          1 BRR      -0.729000
      8 O13        -10.1930    36.1390    -1.2270 o          1 BRR      -0.729000
      9 C5          -7.3740    37.0700     0.5120 c3         1 BRR       0.139000
     10 N3          -6.3140    38.0480     0.6230 n          1 BRR      -0.269300
     11 C2          -5.0050    37.8330     0.7310 c          1 BRR       0.569900
     12 O1          -4.1740    38.7480     0.6770 o          1 BRR      -0.675100
     13 O4          -6.7130    39.3660     0.3920 oh         1 BRR      -0.456100
     14 H101        -5.9690    35.8480    -6.4980 hc         1 BRR       0.022700
     15 H102        -7.4660    35.1660    -5.8540 hc         1 BRR       0.022700
     16 H103        -7.3340    36.9050    -6.1250 hc         1 BRR       0.022700
     17 H91         -5.6920    35.3160    -4.0730 hc         1 BRR       0.026200
     18 H92         -5.5630    37.0430    -4.3410 hc         1 BRR       0.026200
     19 H81         -7.9420    37.3370    -3.6390 hc         1 BRR       0.050700
     20 H82         -8.0840    35.6080    -3.3890 hc         1 BRR       0.050700
     21 H71         -6.3340    35.6980    -1.6180 hc         1 BRR       0.019200
     22 H72         -6.1130    37.4150    -1.9180 hc         1 BRR       0.019200
     23 H6          -8.4360    37.8620    -1.1820 hc         1 BRR       0.056700
     24 H51         -8.1610    37.3440     1.2190 h1         1 BRR       0.063700
     25 H52         -6.9450    36.1210     0.8330 h1         1 BRR       0.063700
     26 H2          -4.7520    36.7780     0.8790 h5         1 BRR       0.033200
     27 HO4         -5.8570    39.8400     0.3630 ho         1 BRR       0.457000
@<TRIPOS>BOND
     1     1     2 1   
     2     1    14 1   
     3     1    15 1   
     4     1    16 1   
     5     2     3 1   
     6     2    17 1   
     7     2    18 1   
     8     3     4 1   
     9     3    19 1   
    10     3    20 1   
    11     4     5 1   
    12     4    21 1   
    13     4    22 1   
    14     5     6 1   
    15     5     9 1   
    16     5    23 1   
    17     6     7 1   
    18     6     8 1   
    19     9    10 1   
    20     9    24 1   
    21     9    25 1   
    22    10    11 1   
    23    10    13 1   
    24    11    12 2   
    25    11    26 1   
    26    13    27 1   
@<TRIPOS>SUBSTRUCTURE
     1 BRR         1 TEMP              0 ****  ****    0 ROOT
