@<TRIPOS>MOLECULE
BRR
   27    26     1     0     0
SMALL
No Charge or Current Charge


@<TRIPOS>ATOM
      1 C10         -6.7720    36.0280    -5.8490 c3         1 BRR      -0.085100
      2 C9          -6.2390    36.1160    -4.4060 c3         1 BRR      -0.077400
      3 C8          -7.3380    36.4480    -3.3730 c3         1 BRR      -0.072400
      4 C7          -6.8000    36.5350    -1.9260 c3         1 BRR      -0.046400
      5 C6          -7.8780    36.9230    -0.8720 c3         1 BRR      -0.214700
      6 C11         -9.0580    35.9340    -0.8510 c          1 BRR       0.711000
      7 O12         -8.8410    34.7740    -0.5360 o          1 BRR      -0.729000
      8 O13        -10.1690    36.3600    -1.1280 o          1 BRR      -0.729000
      9 C5          -7.3010    37.0480     0.5580 c3         1 BRR       0.139000
     10 N3          -6.2910    38.1170     0.7060 n          1 BRR      -0.269300
     11 C2          -4.9000    37.8480     0.7630 c          1 BRR       0.569900
     12 O1          -4.0540    38.7300     0.9030 o          1 BRR      -0.675100
     13 O4          -6.7950    39.4630     0.8580 oh         1 BRR      -0.456100
     14 H101        -5.9570    35.7920    -6.5440 hc         1 BRR       0.022700
     15 H102        -7.5340    35.2440    -5.9340 hc         1 BRR       0.022700
     16 H103        -7.2190    36.9820    -6.1560 hc         1 BRR       0.022700
     17 H91         -5.7690    35.1610    -4.1420 hc         1 BRR       0.026200
     18 H92         -5.4550    36.8820    -4.3630 hc         1 BRR       0.026200
     19 H81         -7.8070    37.4030    -3.6410 hc         1 BRR       0.050700
     20 H82         -8.1200    35.6810    -3.4290 hc         1 BRR       0.050700
     21 H71         -6.3510    35.5730    -1.6510 hc         1 BRR       0.019200
     22 H72         -5.9930    37.2770    -1.9050 hc         1 BRR       0.019200
     23 H6          -8.2780    37.9040    -1.1550 hc         1 BRR       0.056700
     24 H51         -8.1230    37.2560     1.2560 h1         1 BRR       0.063700
     25 H52         -6.8590    36.0890     0.8580 h1         1 BRR       0.063700
     26 H2          -4.6630    36.7710     0.6630 h5         1 BRR       0.033200
     27 HO4         -6.7690    39.8490    -0.0470 ho         1 BRR       0.457000
@<TRIPOS>BOND
     1     1     2 1   
     2     1    14 1   
     3     1    15 1   
     4     1    16 1   
     5     2     3 1   
     6     2    17 1   
     7     2    18 1   
     8     3     4 1   
     9     3    19 1   
    10     3    20 1   
    11     4     5 1   
    12     4    21 1   
    13     4    22 1   
    14     5     6 1   
    15     5     9 1   
    16     5    23 1   
    17     6     7 1   
    18     6     8 1   
    19     9    10 1   
    20     9    24 1   
    21     9    25 1   
    22    10    11 1   
    23    10    13 1   
    24    11    12 2   
    25    11    26 1   
    26    13    27 1   
@<TRIPOS>SUBSTRUCTURE
     1 BRR         1 TEMP              0 ****  ****    0 ROOT
