@<TRIPOS>MOLECULE
BRS
   33    34     1     0     0
SMALL
bcc


@<TRIPOS>ATOM
      1 N1          -2.9730     1.3950     1.6630 no         1 BRS       0.328200
      2 O2          -2.5020     2.5080     1.8470 o          1 BRS      -0.206500
      3 O3          -3.9180     0.9760     2.2770 o          1 BRS      -0.206500
      4 O5          -2.3920    -3.5120    -1.5790 o          1 BRS      -0.202000
      5 O6          -3.8460    -3.1660    -0.0550 o          1 BRS      -0.202000
      6 C7          -2.9080    -0.7000     0.4560 ca         1 BRS       0.041000
      7 C8          -2.3410    -1.5080    -0.4960 ca         1 BRS      -0.241200
      8 C9          -1.2400    -1.0880    -1.2470 ca         1 BRS       0.007000
      9 C10         -0.6850     0.1530    -1.0500 ca         1 BRS      -0.140300
     10 C11         -1.2460     1.0090    -0.0750 ca         1 BRS       0.282100
     11 C12         -2.3600     0.5580     0.6630 ca         1 BRS      -0.319200
     12 C14          2.4900     1.8480    -0.8020 ca         1 BRS      -0.110500
     13 C15          1.7400     0.6850    -0.9300 ca         1 BRS      -0.083300
     14 C16          2.1580    -0.4530    -0.2450 ca         1 BRS      -0.110500
     15 C17          3.2940    -0.4360     0.5490 ca         1 BRS      -0.119000
     16 C18          4.0230     0.7390     0.6570 ca         1 BRS       0.031400
     17 C19          3.6320     1.8850    -0.0140 ca         1 BRS      -0.119000
     18 CL20         5.4450     0.7730     1.6500 cl         1 BRS      -0.107400
     19 C21          0.5180     0.6430    -1.8260 c3         1 BRS       0.042900
     20 C22          0.8020    -0.1650    -3.0900 c3         1 BRS      -0.091100
     21 HC7         -3.7630    -1.0240     1.0310 ha         1 BRS       0.204000
     22 HC9         -0.8190    -1.7500    -1.9890 ha         1 BRS       0.182000
     23 HO13        -1.1550     2.6870     0.7680 ho         1 BRS       0.490000
     24 HC14         2.1820     2.7470    -1.3220 ha         1 BRS       0.135500
     25 HC16         1.5940    -1.3750    -0.3210 ha         1 BRS       0.135500
     26 HC17         3.6040    -1.3270     1.0780 ha         1 BRS       0.150000
     27 HC19         4.2020     2.8000     0.0780 ha         1 BRS       0.150000
     28 HC21         0.3050     1.6680    -2.1440 hc         1 BRS       0.074700
     29 H221         1.6270     0.2930    -3.6330 hc         1 BRS       0.046033
     30 H222         1.0870    -1.1950    -2.8740 hc         1 BRS       0.046033
     31 H223        -0.0660    -0.1800    -3.7500 hc         1 BRS       0.046033
     32 O13         -0.6820     2.1840     0.0760 oh         1 BRS      -0.460100
     33 N4          -2.9010    -2.8240    -0.7260 no         1 BRS       0.325200
@<TRIPOS>BOND
     1     1     2 1   
     2     1     3 1   
     3     1    11 1   
     4     4    33 1   
     5     5    33 1   
     6     6     7 ar  
     7     6    11 ar  
     8     6    21 1   
     9     7     8 ar  
    10     7    33 1   
    11     8     9 ar  
    12     8    22 1   
    13     9    10 ar  
    14     9    19 1   
    15    10    11 ar  
    16    10    32 1   
    17    12    13 ar  
    18    12    17 ar  
    19    12    24 1   
    20    13    14 ar  
    21    13    19 1   
    22    14    15 ar  
    23    14    25 1   
    24    15    16 ar  
    25    15    26 1   
    26    16    17 ar  
    27    16    18 1   
    28    17    27 1   
    29    19    20 1   
    30    19    28 1   
    31    20    29 1   
    32    20    30 1   
    33    20    31 1   
    34    23    32 1   
@<TRIPOS>SUBSTRUCTURE
     1 BRS         1 TEMP              0 ****  ****    0 ROOT
