@<TRIPOS>MOLECULE
BRS
   33    34     1     0     0
SMALL
No Charge or Current Charge


@<TRIPOS>ATOM
      1 N1          -3.2000     1.5780     1.5690 no         1 BRS       0.708200
      2 O2          -2.7150     2.6890     1.8190 o          1 BRS      -0.396500
      3 O3          -4.2580     1.1740     2.0630 o          1 BRS      -0.396500
      4 O5          -2.1550    -3.7200    -1.2910 o          1 BRS      -0.392000
      5 O6          -3.7350    -3.3110     0.1550 o          1 BRS      -0.392000
      6 C7          -2.9220    -0.6580     0.4840 ca         1 BRS       0.059000
      7 C8          -2.2710    -1.5540    -0.3870 ca         1 BRS      -0.241200
      8 C9          -1.1590    -1.1130    -1.1330 ca         1 BRS       0.025000
      9 C10         -0.6910     0.2140    -1.0210 ca         1 BRS      -0.140300
     10 C11         -1.3450     1.1030    -0.1320 ca         1 BRS       0.282100
     11 C12         -2.4670     0.6740     0.6230 ca         1 BRS      -0.319200
     12 C14          2.4960     1.8360    -0.6680 ca         1 BRS      -0.092500
     13 C15          1.7970     0.6470    -0.9630 ca         1 BRS      -0.083300
     14 C16          2.2680    -0.5760    -0.4380 ca         1 BRS      -0.092500
     15 C17          3.4230    -0.6080     0.3640 ca         1 BRS      -0.101000
     16 C18          4.1130     0.5810     0.6490 ca         1 BRS       0.123000
     17 C19          3.6510     1.8020     0.1340 ca         1 BRS      -0.101000
     18 Cl20         5.5570     0.5400     1.6530 cl         1 BRS      -0.199000
     19 C21          0.5370     0.6890    -1.8300 c3         1 BRS       0.042900
     20 C22          0.7610    -0.0540    -3.1710 c3         1 BRS      -0.091100
     21 HC7         -3.7810    -1.0050     1.0610 ha         1 BRS       0.186000
     22 HC9         -0.6540    -1.8120    -1.7950 ha         1 BRS       0.164000
     23 HO13        -1.3990     2.8280     0.6780 ho         1 BRS       0.529000
     24 HC14         2.1460     2.7890    -1.0580 ha         1 BRS       0.117500
     25 HC16         1.7410    -1.5030    -0.6480 ha         1 BRS       0.117500
     26 HC17         3.7810    -1.5530     0.7650 ha         1 BRS       0.132000
     27 HC19         4.1860     2.7210     0.3580 ha         1 BRS       0.132000
     28 HC21         0.3570     1.7280    -2.1310 hc         1 BRS       0.074700
     29 H221         1.5410     0.4510    -3.7530 hc         1 BRS       0.046033
     30 H222         1.0850    -1.0890    -3.0180 hc         1 BRS       0.046033
     31 H223        -0.1570    -0.0570    -3.7700 hc         1 BRS       0.046033
     32 O13         -0.8720     2.3800    -0.0230 oh         1 BRS      -0.499100
     33 N4          -2.7550    -2.9640    -0.5170 no         1 BRS       0.705200
@<TRIPOS>BOND
     1     1     2 1   
     2     1     3 1   
     3     1    11 1   
     4     4    33 1   
     5     5    33 1   
     6     6     7 ar  
     7     6    11 ar  
     8     6    21 1   
     9     7     8 ar  
    10     7    33 1   
    11     8     9 ar  
    12     8    22 1   
    13     9    10 ar  
    14     9    19 1   
    15    10    11 ar  
    16    10    32 1   
    17    12    13 ar  
    18    12    17 ar  
    19    12    24 1   
    20    13    14 ar  
    21    13    19 1   
    22    14    15 ar  
    23    14    25 1   
    24    15    16 ar  
    25    15    26 1   
    26    16    17 ar  
    27    16    18 1   
    28    17    27 1   
    29    19    20 1   
    30    19    28 1   
    31    20    29 1   
    32    20    30 1   
    33    20    31 1   
    34    23    32 1   
@<TRIPOS>SUBSTRUCTURE
     1 BRS         1 TEMP              0 ****  ****    0 ROOT
