@<TRIPOS>MOLECULE
BRT
   15    15     1     0     0
SMALL
bcc


@<TRIPOS>ATOM
      1 C2          -1.5310    -0.0130     1.7900 ca         1 BRT       0.438200
      2 N3          -2.2890    -0.0280     0.7040 nb         1 BRT      -0.672000
      3 C4          -1.7040    -0.0210    -0.4840 ca         1 BRT       0.450200
      4 C5          -0.3220     0.0040    -0.6220 ca         1 BRT      -0.158200
      5 BR           0.4450     0.0150    -2.3370 br         1 BRT      -0.066100
      6 C6           0.4740     0.0210     0.5070 ca         1 BRT      -0.015000
      7 C1          -0.1410     0.0110     1.7540 ca         1 BRT      -0.270900
      8 C7           0.7450     0.0310     2.9660 c          1 BRT       0.691700
      9 O9           1.9590     0.0760     2.8350 o          1 BRT      -0.600100
     10 N8           0.1430    -0.0030     4.1600 nt         1 BRT      -0.668000
     11 H2          -2.0780    -0.0180     2.7260 h4         1 BRT       0.016100
     12 H4          -2.3540    -0.0350    -1.3510 h4         1 BRT       0.038100
     13 H6           1.5530     0.0400     0.4340 ha         1 BRT       0.179000
     14 H8N1         0.7040     0.0120     4.9970 hn         1 BRT       0.318000
     15 H8N2        -0.8520    -0.0450     4.2850 hn         1 BRT       0.318000
@<TRIPOS>BOND
     1     1     2 ar  
     2     1     7 ar  
     3     1    11 1   
     4     2     3 ar  
     5     3     4 ar  
     6     3    12 1   
     7     4     5 1   
     8     4     6 ar  
     9     6     7 ar  
    10     6    13 1   
    11     7     8 1   
    12     8     9 2   
    13     8    10 1   
    14    10    14 1   
    15    10    15 1   
@<TRIPOS>SUBSTRUCTURE
     1 BRT         1 TEMP              0 ****  ****    0 ROOT
