@<TRIPOS>MOLECULE
BRT
   15    15     1     0     0
SMALL
No Charge or Current Charge


@<TRIPOS>ATOM
      1 C2          -1.5130    -0.0220     1.8160 ca         1 BRT       0.372900
      2 N3          -2.3120    -0.0370     0.7230 nb         1 BRT      -0.672000
      3 C4          -1.7210    -0.0220    -0.4950 ca         1 BRT       0.384900
      4 C5          -0.3260     0.0080    -0.6630 ca         1 BRT      -0.092900
      5 Br           0.4430     0.0280    -2.4160 br         1 BRT      -0.066100
      6 C6           0.4980     0.0230     0.4730 ca         1 BRT       0.003000
      7 C1          -0.1070     0.0080     1.7470 ca         1 BRT      -0.205600
      8 C7           0.7370     0.0230     2.9870 c          1 BRT       0.624700
      9 O9           1.9550     0.0490     2.9430 o          1 BRT      -0.600100
     10 N8           0.1250     0.0080     4.1910 nt         1 BRT      -0.601000
     11 H2          -2.0360    -0.0350     2.7710 h4         1 BRT       0.016100
     12 H4          -2.3850    -0.0340    -1.3590 h4         1 BRT       0.038100
     13 H6           1.5810     0.0460     0.3620 ha         1 BRT       0.161000
     14 H8N1         0.6930     0.0180     5.0250 hn         1 BRT       0.318000
     15 H8N2        -0.8800    -0.0130     4.2590 hn         1 BRT       0.318000
@<TRIPOS>BOND
     1     1     2 ar  
     2     1     7 ar  
     3     1    11 1   
     4     2     3 ar  
     5     3     4 ar  
     6     3    12 1   
     7     4     5 1   
     8     4     6 ar  
     9     6     7 ar  
    10     6    13 1   
    11     7     8 1   
    12     8     9 2   
    13     8    10 1   
    14    10    14 1   
    15    10    15 1   
@<TRIPOS>SUBSTRUCTURE
     1 BRT         1 TEMP              0 ****  ****    0 ROOT
