@<TRIPOS>MOLECULE
BRV
   18    18     1     0     0
SMALL
bcc


@<TRIPOS>ATOM
      1 C10          2.5430    -1.1950     0.0500 c          1 BRV       0.944200
      2 C7          -2.5420    -1.2030     0.0140 c          1 BRV       0.944200
      3 C5          -0.0040     1.7020    -0.0490 ca         1 BRV       0.177600
      4 C4           1.1860     0.9520    -0.0280 ca         1 BRV      -0.081900
      5 C3           1.2160    -0.4320     0.0180 ca         1 BRV      -0.033600
      6 C2           0.0000    -1.1000     0.0380 ca         1 BRV      -0.021900
      7 BR1          0.0030    -2.9970     0.1060 br         1 BRV      -0.130100
      8 BR3         -2.8500     1.8690    -0.0870 br         1 BRV      -0.177100
      9 C1          -1.2180    -0.4360     0.0090 ca         1 BRV      -0.033600
     10 C6          -1.1910     0.9490    -0.0340 ca         1 BRV      -0.081900
     11 O8          -2.9790    -1.5030    -1.1050 o          1 BRV      -0.814800
     12 O9          -3.0170    -1.4350     1.1330 o          1 BRV      -0.814800
     13 O11          3.0080    -1.3970     1.1800 o          1 BRV      -0.814800
     14 O12          2.9910    -1.5220    -1.0570 o          1 BRV      -0.814800
     15 HN13         0.8270     3.5490     0.1530 hn         1 BRV       0.387300
     16 HN1A        -0.8400     3.5460     0.1600 hn         1 BRV       0.387300
     17 N13         -0.0060     3.0640    -0.1370 nv         1 BRV      -0.843200
     18 BR2          2.8420     1.8780    -0.0800 br         1 BRV      -0.177100
@<TRIPOS>BOND
     1     1     5 1   
     2     1    13 1   
     3     1    14 1   
     4     2     9 1   
     5     2    11 1   
     6     2    12 1   
     7     3     4 ar  
     8     3    10 ar  
     9     3    17 1   
    10     4     5 ar  
    11     4    18 1   
    12     5     6 ar  
    13     6     7 1   
    14     6     9 ar  
    15     8    10 1   
    16     9    10 ar  
    17    15    17 1   
    18    16    17 1   
@<TRIPOS>SUBSTRUCTURE
     1 BRV         1 TEMP              0 ****  ****    0 ROOT
