@<TRIPOS>MOLECULE
BRV
   18    18     1     0     0
SMALL
No Charge or Current Charge


@<TRIPOS>ATOM
      1 C10          2.5320    -1.1900     0.0480 c          1 BRV       0.733600
      2 C7          -2.5310    -1.1980     0.0190 c          1 BRV       0.733600
      3 C5          -0.0040     1.6820    -0.0390 ca         1 BRV       0.316000
      4 C4           1.2190     0.9790    -0.0140 ca         1 BRV      -0.081900
      5 C3           1.2270    -0.4340     0.0210 ca         1 BRV      -0.033600
      6 C2           0.0000    -1.1360     0.0310 ca         1 BRV      -0.021900
      7 Br1          0.0030    -3.0620     0.0770 br         1 BRV      -0.130100
      8 Br3         -2.9020     1.9360    -0.0560 br         1 BRV      -0.177100
      9 C1          -1.2280    -0.4380     0.0070 ca         1 BRV      -0.033600
     10 C6          -1.2250     0.9750    -0.0270 ca         1 BRV      -0.081900
     11 O8          -3.0230    -1.5180    -1.0550 o          1 BRV      -0.709500
     12 O9          -3.0340    -1.4660     1.1030 o          1 BRV      -0.709500
     13 O11          3.0230    -1.4560     1.1370 o          1 BRV      -0.709500
     14 O12          3.0370    -1.5080    -1.0210 o          1 BRV      -0.709500
     15 HN13         0.8670     3.5610     0.0800 hn         1 BRV       0.442500
     16 HN1A        -0.8800     3.5600     0.0700 hn         1 BRV       0.442500
     17 N13         -0.0060     3.0580    -0.0720 nv         1 BRV      -1.092000
     18 Br2          2.8930     1.9450    -0.0240 br         1 BRV      -0.177100
@<TRIPOS>BOND
     1     1     5 1   
     2     1    13 1   
     3     1    14 1   
     4     2     9 1   
     5     2    11 1   
     6     2    12 1   
     7     3     4 ar  
     8     3    10 ar  
     9     3    17 1   
    10     4     5 ar  
    11     4    18 1   
    12     5     6 ar  
    13     6     7 1   
    14     6     9 ar  
    15     8    10 1   
    16     9    10 ar  
    17    15    17 1   
    18    16    17 1   
@<TRIPOS>SUBSTRUCTURE
     1 BRV         1 TEMP              0 ****  ****    0 ROOT
