@<TRIPOS>MOLECULE
BRW
   32    35     1     0     0
SMALL
abcg2


@<TRIPOS>ATOM
      1 C1          -3.8450     0.9250    -0.0150 ca         1 BRW      -0.223900
      2 C2          -2.3860     0.9810     0.0190 cc         1 BRW       0.448200
      3 C3          -4.1730    -0.4330    -0.0700 ca         1 BRW       0.032800
      4 N4          -3.0160    -1.1850    -0.0730 na         1 BRW      -0.277700
      5 C5          -5.4820    -0.8770    -0.1150 ca         1 BRW      -0.145000
      6 C7          -6.4810     0.0910    -0.1020 ca         1 BRW      -0.058000
      7 C9          -6.1760     1.4480    -0.0470 ca         1 BRW      -0.153000
      8 C11         -4.8540     1.8790    -0.0030 ca         1 BRW      -0.016000
      9 C13         -1.8990    -0.4200    -0.0210 cc         1 BRW       0.079300
     10 C14         -0.6330    -0.9560    -0.0170 cd         1 BRW      -0.233400
     11 C15         -0.4700    -2.4200    -0.0730 c          1 BRW       0.573200
     12 N16          0.8730    -2.6630    -0.0590 ns         1 BRW      -0.388100
     13 C17          1.5960    -1.4940     0.0080 ca         1 BRW       0.046600
     14 C18          0.7080    -0.3980     0.0370 ca         1 BRW      -0.044800
     15 C19          2.9690    -1.3600     0.0460 ca         1 BRW      -0.124000
     16 C20          3.4720    -0.0660     0.1170 ca         1 BRW       0.008100
     17 C21          2.6400     1.0420     0.1500 ca         1 BRW      -0.116000
     18 C22          1.2590     0.8760     0.1090 ca         1 BRW      -0.062000
     19 O23         -1.3340    -3.2900    -0.1230 o          1 BRW      -0.584000
     20 N24         -1.5760     1.9660     0.0730 n2         1 BRW      -0.288700
     21 O39         -2.1870     3.1560     0.1030 oh         1 BRW      -0.489000
     22 BR21         5.3440     0.1790     0.1730 br         1 BRW      -0.100100
     23 H4          -2.9660    -2.1950    -0.1070 hn         1 BRW       0.398000
     24 H5          -5.7200    -1.9310    -0.1580 ha         1 BRW       0.129000
     25 H7          -7.5170    -0.2210    -0.1350 ha         1 BRW       0.118000
     26 H9          -6.9740     2.1770    -0.0390 ha         1 BRW       0.120000
     27 H11         -4.6370     2.9350     0.0370 ha         1 BRW       0.133000
     28 H16          1.2690    -3.5900    -0.0860 hn         1 BRW       0.342500
     29 H19          3.6150    -2.2270     0.0220 ha         1 BRW       0.133000
     30 H21          3.0500     2.0420     0.2060 ha         1 BRW       0.128000
     31 H22          0.6250     1.7460     0.1340 ha         1 BRW       0.135000
     32 H39         -1.4730     3.8040     0.1440 ho         1 BRW       0.477000
@<TRIPOS>BOND
     1     1     2 1   
     2     1     3 ar  
     3     1     8 ar  
     4     2     9 1   
     5     2    20 2   
     6     3     4 1   
     7     3     5 ar  
     8     4     9 1   
     9     4    23 1   
    10     5     6 ar  
    11     5    24 1   
    12     6     7 ar  
    13     6    25 1   
    14     7     8 ar  
    15     7    26 1   
    16     8    27 1   
    17     9    10 2   
    18    10    11 1   
    19    10    14 1   
    20    11    12 1   
    21    11    19 2   
    22    12    13 1   
    23    12    28 1   
    24    13    14 ar  
    25    13    15 ar  
    26    14    18 ar  
    27    15    16 ar  
    28    15    29 1   
    29    16    17 ar  
    30    16    22 1   
    31    17    18 ar  
    32    17    30 1   
    33    18    31 1   
    34    20    21 1   
    35    21    32 1   
@<TRIPOS>SUBSTRUCTURE
     1 BRW         1 TEMP              0 ****  ****    0 ROOT
