@<TRIPOS>MOLECULE
BRW
   32    35     1     0     0
SMALL
No Charge or Current Charge


@<TRIPOS>ATOM
      1 C1          -3.8350     0.9150    -0.0310 ca         1 BRW      -0.223900
      2 C2          -2.3730     1.0250    -0.0770 cc         1 BRW       0.448200
      3 C3          -4.1480    -0.4390    -0.0090 ca         1 BRW       0.032800
      4 N4          -3.0030    -1.2140    -0.0270 na         1 BRW      -0.277700
      5 C5          -5.4710    -0.8930     0.0260 ca         1 BRW      -0.145000
      6 C7          -6.5060     0.0620     0.0370 ca         1 BRW      -0.058000
      7 C9          -6.2000     1.4410     0.0120 ca         1 BRW      -0.153000
      8 C11         -4.8600     1.8830    -0.0240 ca         1 BRW      -0.016000
      9 C13         -1.9130    -0.3500    -0.0470 cc         1 BRW       0.079300
     10 C14         -0.6590    -0.9860    -0.0610 cd         1 BRW      -0.233400
     11 C15         -0.4910    -2.4750    -0.2200 c          1 BRW       0.573200
     12 N16          0.8570    -2.6600    -0.2360 ns         1 BRW      -0.388100
     13 C17          1.6100    -1.5090    -0.0760 ca         1 BRW       0.046600
     14 C18          0.7280    -0.4430     0.0600 ca         1 BRW      -0.044800
     15 C19          3.0000    -1.3770    -0.0110 ca         1 BRW      -0.124000
     16 C20          3.5200    -0.0920     0.2170 ca         1 BRW       0.008100
     17 C21          2.6510     1.0060     0.3960 ca         1 BRW      -0.116000
     18 C22          1.2490     0.8390     0.3300 ca         1 BRW      -0.062000
     19 O23         -1.3300    -3.3590    -0.3300 o          1 BRW      -0.584000
     20 N24         -1.6240     2.0920    -0.2030 n2         1 BRW      -0.288700
     21 O39         -2.2450     3.3540    -0.2640 oh         1 BRW      -0.489000
     22 Br21         5.4120     0.1640     0.3220 br         1 BRW      -0.100100
     23 H4          -2.9540    -2.2300    -0.0430 hn         1 BRW       0.398000
     24 H5          -5.6970    -1.9570     0.0430 ha         1 BRW       0.129000
     25 H7          -7.5440    -0.2630     0.0640 ha         1 BRW       0.118000
     26 H9          -7.0060     2.1710     0.0200 ha         1 BRW       0.120000
     27 H11         -4.6530     2.9490    -0.0420 ha         1 BRW       0.133000
     28 H16          1.2680    -3.5800    -0.3280 hn         1 BRW       0.342500
     29 H19          3.6540    -2.2380    -0.1240 ha         1 BRW       0.133000
     30 H21          3.0640     1.9910     0.6000 ha         1 BRW       0.128000
     31 H22          0.6240     1.6960     0.5240 ha         1 BRW       0.135000
     32 H39         -1.5050     4.0010    -0.3630 ho         1 BRW       0.477000
@<TRIPOS>BOND
     1     1     2 1   
     2     1     3 ar  
     3     1     8 ar  
     4     2     9 1   
     5     2    20 2   
     6     3     4 1   
     7     3     5 ar  
     8     4     9 1   
     9     4    23 1   
    10     5     6 ar  
    11     5    24 1   
    12     6     7 ar  
    13     6    25 1   
    14     7     8 ar  
    15     7    26 1   
    16     8    27 1   
    17     9    10 2   
    18    10    11 1   
    19    10    14 1   
    20    11    12 1   
    21    11    19 2   
    22    12    13 1   
    23    12    28 1   
    24    13    14 ar  
    25    13    15 ar  
    26    14    18 ar  
    27    15    16 ar  
    28    15    29 1   
    29    16    17 ar  
    30    16    22 1   
    31    17    18 ar  
    32    17    30 1   
    33    18    31 1   
    34    20    21 1   
    35    21    32 1   
@<TRIPOS>SUBSTRUCTURE
     1 BRW         1 TEMP              0 ****  ****    0 ROOT
