@<TRIPOS>MOLECULE
BRX
   32    32     1     0     0
SMALL
bcc


@<TRIPOS>ATOM
      1 O2          40.7850    38.8700   -11.1420 o          1 BRX      -0.547100
      2 C2          39.6410    38.6880   -11.5010 c          1 BRX       0.682100
      3 N2          39.0930    39.1550   -12.6290 ns         1 BRX      -0.567900
      4 C3          39.8320    39.8790   -13.6420 c3         1 BRX       0.031700
      5 C4          39.4560    41.3590   -13.6780 c3         1 BRX       0.115400
      6 O4          38.1190    41.5890   -14.0760 oh         1 BRX      -0.606800
      7 C5          39.6390    39.1890   -15.0090 c3         1 BRX       0.188400
      8 O5          38.2830    39.0520   -15.3400 oh         1 BRX      -0.601800
      9 C6          40.2860    37.8300   -14.9830 ca         1 BRX      -0.043300
     10 C11         39.5630    36.6750   -14.7060 ca         1 BRX      -0.123000
     11 C10         40.2000    35.4470   -14.6260 ca         1 BRX      -0.061500
     12 C9          41.5700    35.3850   -14.8260 ca         1 BRX      -0.172200
     13 N9          42.2430    34.1000   -14.7390 no         1 BRX       0.314200
     14 O9B         43.4400    34.0720   -14.9120 o          1 BRX      -0.208000
     15 O9A         41.5760    33.1220   -14.4980 o          1 BRX      -0.208000
     16 C8          42.3140    36.5230   -15.1080 ca         1 BRX      -0.061500
     17 C7          41.6610    37.7370   -15.1860 ca         1 BRX      -0.123000
     18 C1          38.6640    37.8490   -10.6760 c3         1 BRX      -0.057900
     19 BR1         39.1740    35.9880   -10.8610 br         1 BRX      -0.071900
     20 BR2         38.7310    38.3960    -8.8300 br         1 BRX      -0.071900
     21 H2          38.1300    38.9340   -12.8300 hn         1 BRX       0.324500
     22 H1          37.6290    37.9380   -11.0110 h2         1 BRX       0.106700
     23 H3          40.8920    39.8340   -13.3830 h1         1 BRX       0.100700
     24 H41C        39.6660    41.8040   -12.7010 h1         1 BRX       0.063200
     25 H42C        40.1000    41.8540   -14.4080 h1         1 BRX       0.063200
     26 H5          40.1700    39.8050   -15.7490 h1         1 BRX       0.053700
     27 H4          37.5450    41.5180   -13.3070 ho         1 BRX       0.412000
     28 HA          37.8710    39.9220   -15.2470 ho         1 BRX       0.434000
     29 H11         38.4950    36.7160   -14.5510 ha         1 BRX       0.148500
     30 H7          42.2330    38.6290   -15.4100 ha         1 BRX       0.148500
     31 H10         39.6260    34.5600   -14.4050 ha         1 BRX       0.171000
     32 H8          43.3810    36.4730   -15.2700 ha         1 BRX       0.171000
@<TRIPOS>BOND
     1     1     2 2   
     2     2     3 1   
     3     2    18 1   
     4     3     4 1   
     5     3    21 1   
     6     4     5 1   
     7     4     7 1   
     8     4    23 1   
     9     5     6 1   
    10     5    24 1   
    11     5    25 1   
    12     6    27 1   
    13     7     8 1   
    14     7     9 1   
    15     7    26 1   
    16     8    28 1   
    17     9    10 ar  
    18     9    17 ar  
    19    10    11 ar  
    20    10    29 1   
    21    11    12 ar  
    22    11    31 1   
    23    12    13 1   
    24    12    16 ar  
    25    13    14 1   
    26    13    15 1   
    27    16    17 ar  
    28    16    32 1   
    29    17    30 1   
    30    18    19 1   
    31    18    20 1   
    32    18    22 1   
@<TRIPOS>SUBSTRUCTURE
     1 BRX         1 TEMP              0 ****  ****    0 ROOT
