@<TRIPOS>MOLECULE
BRX
   32    32     1     0     0
SMALL
No Charge or Current Charge


@<TRIPOS>ATOM
      1 O2          40.9320    38.3290   -11.5930 o          1 BRX      -0.547100
      2 C2          39.7110    38.4210   -11.6420 c          1 BRX       0.615100
      3 N2          39.0740    39.2240   -12.5710 ns         1 BRX      -0.500900
      4 C3          39.7530    40.0010   -13.6300 c3         1 BRX       0.031700
      5 C4          39.1750    41.4400   -13.7070 c3         1 BRX       0.138600
      6 O4          37.7690    41.4020   -14.0290 oh         1 BRX      -0.669000
      7 C5          39.7400    39.2650   -15.0050 c3         1 BRX       0.211600
      8 O5          38.3930    39.1990   -15.4920 oh         1 BRX      -0.664000
      9 C6          40.3780    37.8710   -14.9370 ca         1 BRX      -0.043300
     10 C11         39.6160    36.7230   -14.6350 ca         1 BRX      -0.105000
     11 C10         40.2240    35.4580   -14.5520 ca         1 BRX      -0.043500
     12 C9          41.6140    35.3180   -14.7700 ca         1 BRX      -0.172200
     13 N9          42.2670    33.9720   -14.6760 no         1 BRX       0.694200
     14 O9B         43.4860    33.8970   -14.8800 o          1 BRX      -0.398000
     15 O9A         41.5580    32.9950   -14.3980 o          1 BRX      -0.398000
     16 C8          42.3780    36.4690   -15.0730 ca         1 BRX      -0.043500
     17 C7          41.7620    37.7300   -15.1540 ca         1 BRX      -0.105000
     18 C1          38.7800    37.6520   -10.6860 c3         1 BRX       0.107300
     19 Br1         38.7760    35.6980   -11.0820 br         1 BRX      -0.154500
     20 Br2         39.2620    37.9460    -8.7720 br         1 BRX      -0.154500
     21 H2          38.0610    39.2550   -12.5390 hn         1 BRX       0.324500
     22 H1          37.7510    38.0020   -10.8080 h2         1 BRX       0.106700
     23 H3          40.8090    40.1120   -13.3470 h1         1 BRX       0.100700
     24 H41C        39.3330    41.9340   -12.7370 h1         1 BRX       0.063200
     25 H42C        39.7300    42.0140   -14.4620 h1         1 BRX       0.063200
     26 H5          40.3370    39.8710   -15.7020 h1         1 BRX       0.053700
     27 H4          37.4180    42.3140   -13.8990 ho         1 BRX       0.451000
     28 HA          37.9470    39.9790   -15.0670 ho         1 BRX       0.473000
     29 H11         38.5470    36.8070   -14.4560 ha         1 BRX       0.130500
     30 H7          42.3690    38.6040   -15.3820 ha         1 BRX       0.130500
     31 H10         39.6060    34.5940   -14.3150 ha         1 BRX       0.153000
     32 H8          43.4510    36.3970   -15.2440 ha         1 BRX       0.153000
@<TRIPOS>BOND
     1     1     2 2   
     2     2     3 1   
     3     2    18 1   
     4     3     4 1   
     5     3    21 1   
     6     4     5 1   
     7     4     7 1   
     8     4    23 1   
     9     5     6 1   
    10     5    24 1   
    11     5    25 1   
    12     6    27 1   
    13     7     8 1   
    14     7     9 1   
    15     7    26 1   
    16     8    28 1   
    17     9    10 ar  
    18     9    17 ar  
    19    10    11 ar  
    20    10    29 1   
    21    11    12 ar  
    22    11    31 1   
    23    12    13 1   
    24    12    16 ar  
    25    13    14 1   
    26    13    15 1   
    27    16    17 ar  
    28    16    32 1   
    29    17    30 1   
    30    18    19 1   
    31    18    20 1   
    32    18    22 1   
@<TRIPOS>SUBSTRUCTURE
     1 BRX         1 TEMP              0 ****  ****    0 ROOT
