@<TRIPOS>MOLECULE
BRY
   30    33     1     0     0
SMALL
bcc


@<TRIPOS>ATOM
      1 C1          -1.3010    -0.0030    -3.1560 ca         1 BRY      -0.256600
      2 C2          -1.0170     0.0250    -1.7270 c          1 BRY       0.590900
      3 C3          -0.0790    -0.0730    -3.8250 ca         1 BRY       0.062800
      4 N4           0.9530    -0.0890    -2.9080 na         1 BRY      -0.229400
      5 C5          -0.0160    -0.1150    -5.2060 ca         1 BRY      -0.175000
      6 C7          -1.2250    -0.0850    -5.8930 ca         1 BRY      -0.060000
      7 C9          -2.4550    -0.0160    -5.2360 ca         1 BRY      -0.180000
      8 C11         -2.5010     0.0260    -3.8510 ca         1 BRY      -0.012000
      9 C13          0.4980    -0.0360    -1.6290 cc         1 BRY       0.022700
     10 C14          1.2930    -0.0380    -0.5240 cd         1 BRY      -0.184400
     11 C15          2.7720    -0.1000    -0.6750 c          1 BRY       0.712700
     12 N16          3.2870    -0.0850     0.5830 ns         1 BRY      -0.456100
     13 C17          2.2930    -0.0220     1.5380 ca         1 BRY       0.064600
     14 C18          1.0350     0.0090     0.9060 ca         1 BRY      -0.076800
     15 C19          2.4370     0.0060     2.9090 ca         1 BRY      -0.168000
     16 C20          1.2880     0.0670     3.6900 ca         1 BRY      -0.068000
     17 C21          0.0430     0.0990     3.0770 ca         1 BRY      -0.051900
     18 C22         -0.1070     0.0710     1.6960 ca         1 BRY      -0.042000
     19 O23          3.4200    -0.1560    -1.7090 o          1 BRY      -0.644500
     20 O1          -1.7980     0.0820    -0.8060 o          1 BRY      -0.481100
     21 BR1         -1.5090     0.1820     4.1560 br         1 BRY      -0.097100
     22 H4           1.9370    -0.1380    -3.1350 hn         1 BRY       0.342700
     23 H5           0.9260    -0.1700    -5.7340 ha         1 BRY       0.148000
     24 H7          -1.2080    -0.1170    -6.9750 ha         1 BRY       0.136000
     25 H9          -3.3690     0.0060    -5.8120 ha         1 BRY       0.142000
     26 H11         -3.4450     0.0820    -3.3240 ha         1 BRY       0.151000
     27 H16          4.2750    -0.1190     0.7820 hn         1 BRY       0.343500
     28 H19          3.4130    -0.0190     3.3730 ha         1 BRY       0.142000
     29 H20          1.3790     0.0900     4.7670 ha         1 BRY       0.148000
     30 H22         -1.0860     0.0970     1.2460 ha         1 BRY       0.177000
@<TRIPOS>BOND
     1     1     2 1   
     2     1     3 ar  
     3     1     8 ar  
     4     2     9 1   
     5     2    20 2   
     6     3     4 1   
     7     3     5 ar  
     8     4     9 1   
     9     4    22 1   
    10     5     6 ar  
    11     5    23 1   
    12     6     7 ar  
    13     6    24 1   
    14     7     8 ar  
    15     7    25 1   
    16     8    26 1   
    17     9    10 2   
    18    10    11 1   
    19    10    14 1   
    20    11    12 1   
    21    11    19 2   
    22    12    13 1   
    23    12    27 1   
    24    13    14 ar  
    25    13    15 ar  
    26    14    18 ar  
    27    15    16 ar  
    28    15    28 1   
    29    16    17 ar  
    30    16    29 1   
    31    17    18 ar  
    32    17    21 1   
    33    18    30 1   
@<TRIPOS>SUBSTRUCTURE
     1 BRY         1 TEMP              0 ****  ****    0 ROOT
