@<TRIPOS>MOLECULE
BRY
   30    33     1     0     0
SMALL
No Charge or Current Charge


@<TRIPOS>ATOM
      1 C1          -1.3270    -0.0060    -3.1580 ca         1 BRY      -0.256600
      2 C2          -1.1230     0.0250    -1.6860 c          1 BRY       0.590900
      3 C3          -0.0870    -0.0710    -3.7880 ca         1 BRY       0.062800
      4 N4           0.9520    -0.0880    -2.8690 na         1 BRY      -0.279700
      5 C5           0.0120    -0.1110    -5.1830 ca         1 BRY      -0.157000
      6 C7          -1.1790    -0.0840    -5.9400 ca         1 BRY      -0.042000
      7 C9          -2.4370    -0.0180    -5.2950 ca         1 BRY      -0.162000
      8 C11         -2.5240     0.0220    -3.8870 ca         1 BRY       0.006000
      9 C13          0.3580    -0.0320    -1.6120 cc         1 BRY       0.022700
     10 C14          1.2820    -0.0410    -0.5540 cd         1 BRY      -0.184400
     11 C15          2.7790    -0.1040    -0.7340 c          1 BRY       0.570200
     12 N16          3.2670    -0.0900     0.5380 ns         1 BRY      -0.389100
     13 C17          2.3080    -0.0260     1.5340 ca         1 BRY       0.064600
     14 C18          1.0630     0.0070     0.9200 ca         1 BRY      -0.076800
     15 C19          2.4870     0.0030     2.9200 ca         1 BRY      -0.150000
     16 C20          1.3350     0.0690     3.7260 ca         1 BRY      -0.050000
     17 C21          0.0560     0.1040     3.1260 ca         1 BRY      -0.051900
     18 C22         -0.0940     0.0730     1.7220 ca         1 BRY      -0.024000
     19 O23          3.4550    -0.1580    -1.7530 o          1 BRY      -0.569000
     20 O1          -1.9940     0.0810    -0.8310 o          1 BRY      -0.481100
     21 Br1         -1.5000     0.1940     4.2360 br         1 BRY      -0.097100
     22 H4           1.9490    -0.1330    -3.0660 hn         1 BRY       0.393000
     23 H5           0.9810    -0.1630    -5.6740 ha         1 BRY       0.130000
     24 H7          -1.1300    -0.1150    -7.0260 ha         1 BRY       0.118000
     25 H9          -3.3480     0.0030    -5.8900 ha         1 BRY       0.124000
     26 H11         -3.4890     0.0740    -3.3850 ha         1 BRY       0.133000
     27 H16          4.2600    -0.1240     0.7300 hn         1 BRY       0.343500
     28 H19          3.4810    -0.0250     3.3610 ha         1 BRY       0.124000
     29 H20          1.4300     0.0940     4.8090 ha         1 BRY       0.130000
     30 H22         -1.0900     0.1020     1.3080 ha         1 BRY       0.159000
@<TRIPOS>BOND
     1     1     2 1   
     2     1     3 ar  
     3     1     8 ar  
     4     2     9 1   
     5     2    20 2   
     6     3     4 1   
     7     3     5 ar  
     8     4     9 1   
     9     4    22 1   
    10     5     6 ar  
    11     5    23 1   
    12     6     7 ar  
    13     6    24 1   
    14     7     8 ar  
    15     7    25 1   
    16     8    26 1   
    17     9    10 2   
    18    10    11 1   
    19    10    14 1   
    20    11    12 1   
    21    11    19 2   
    22    12    13 1   
    23    12    27 1   
    24    13    14 ar  
    25    13    15 ar  
    26    14    18 ar  
    27    15    16 ar  
    28    15    28 1   
    29    16    17 ar  
    30    16    29 1   
    31    17    18 ar  
    32    17    21 1   
    33    18    30 1   
@<TRIPOS>SUBSTRUCTURE
     1 BRY         1 TEMP              0 ****  ****    0 ROOT
