@<TRIPOS>MOLECULE
BRZ
   45    47     1     0     0
SMALL
No Charge or Current Charge


@<TRIPOS>ATOM
      1 C1           0.5310    -0.3260    -0.3340 ca         1 BRZ      -0.197800
      2 C2          -0.5350    -1.2320    -0.5230 ca         1 BRZ       0.002000
      3 C3          -1.8200    -0.7120    -0.7440 ca         1 BRZ      -0.204300
      4 C4          -2.0410     0.6420    -0.7760 ca         1 BRZ       0.178100
      5 C5          -1.0000     1.5570    -0.5990 ca         1 BRZ      -0.173000
      6 C6           0.2930     1.0570    -0.3750 ca         1 BRZ       0.211100
      7 O7           1.3300     1.9320    -0.2010 os         1 BRZ      -0.339200
      8 C8           2.6350     1.5690     0.0210 c          1 BRZ       0.677300
      9 C9           2.9380     0.0920     0.0980 cc         1 BRZ      -0.208400
     10 C10          1.8890    -0.7950    -0.0970 cd         1 BRZ      -0.068200
     11 O11         -3.3400     0.9960    -1.0010 os         1 BRZ      -0.319100
     12 C12         -4.1130    -0.2580    -0.9340 c5         1 BRZ       0.135300
     13 C13         -3.0870    -1.4670    -0.9790 c5         1 BRZ      -0.044100
     14 O14          3.4760     2.4500     0.1370 o          1 BRZ      -0.486000
     15 C15          4.3950    -0.3450     0.3510 c3         1 BRZ       0.051400
     16 C16          5.2850     0.0350    -0.8660 c3         1 BRZ      -0.084600
     17 C17          4.9810     0.2920     1.6420 c3         1 BRZ      -0.084600
     18 C18          4.4450    -1.8580     0.6050 c2         1 BRZ      -0.221200
     19 C19          5.0690    -2.8110    -0.1130 c2         1 BRZ      -0.315000
     20 C20         -5.0670    -0.2190     0.3160 c3         1 BRZ       0.177000
     21 O21         -5.8400    -1.4260     0.3530 oh         1 BRZ      -0.658000
     22 C22         -6.0820     0.9450     0.2050 c3         1 BRZ      -0.104100
     23 C23         -4.3050    -0.1140     1.6630 c3         1 BRZ      -0.104100
     24 HC2         -0.3690    -2.3070    -0.5000 ha         1 BRZ       0.122000
     25 HC5         -1.1870     2.6250    -0.6320 ha         1 BRZ       0.156000
     26 HC10         2.0630    -1.8670    -0.0880 ha         1 BRZ       0.194000
     27 HC12        -4.7560    -0.2970    -1.8240 h1         1 BRZ       0.087700
     28 HC11        -3.2750    -2.2340    -0.2190 hc         1 BRZ       0.063700
     29 HC1A        -3.0930    -1.9630    -1.9560 hc         1 BRZ       0.063700
     30 HC61         5.3310     1.1190    -1.0150 hc         1 BRZ       0.043533
     31 HC62         6.3140    -0.3150    -0.7220 hc         1 BRZ       0.043533
     32 HC63         4.8930    -0.4120    -1.7870 hc         1 BRZ       0.043533
     33 HC71         4.2900     0.1670     2.4860 hc         1 BRZ       0.043533
     34 HC72         5.9290    -0.1900     1.9110 hc         1 BRZ       0.043533
     35 HC73         5.1930     1.3590     1.5290 hc         1 BRZ       0.043533
     36 HC18         3.9050    -2.1560     1.5070 ha         1 BRZ       0.166000
     37 HC91         5.0310    -3.8580     0.1900 ha         1 BRZ       0.164000
     38 HC92         5.6340    -2.6000    -1.0210 ha         1 BRZ       0.164000
     39 HO21        -5.3320    -2.0830     0.8750 ho         1 BRZ       0.442000
     40 HC21        -5.5700     1.9150     0.2180 hc         1 BRZ       0.049033
     41 HC22        -6.6550     0.8760    -0.7270 hc         1 BRZ       0.049033
     42 HC23        -6.7920     0.9280     1.0410 hc         1 BRZ       0.049033
     43 HC31        -5.0030    -0.1230     2.5100 hc         1 BRZ       0.049033
     44 HC32        -3.6030    -0.9460     1.7970 hc         1 BRZ       0.049033
     45 HC33        -3.7320     0.8190     1.7140 hc         1 BRZ       0.049033
@<TRIPOS>BOND
     1     1     2 ar  
     2     1     6 ar  
     3     1    10 1   
     4     2     3 ar  
     5     2    24 1   
     6     3     4 ar  
     7     3    13 1   
     8     4     5 ar  
     9     4    11 1   
    10     5     6 ar  
    11     5    25 1   
    12     6     7 1   
    13     7     8 1   
    14     8     9 1   
    15     8    14 2   
    16     9    10 2   
    17     9    15 1   
    18    10    26 1   
    19    11    12 1   
    20    12    13 1   
    21    12    20 1   
    22    12    27 1   
    23    13    28 1   
    24    13    29 1   
    25    15    16 1   
    26    15    17 1   
    27    15    18 1   
    28    16    30 1   
    29    16    31 1   
    30    16    32 1   
    31    17    33 1   
    32    17    34 1   
    33    17    35 1   
    34    18    19 2   
    35    18    36 1   
    36    19    37 1   
    37    19    38 1   
    38    20    21 1   
    39    20    22 1   
    40    20    23 1   
    41    21    39 1   
    42    22    40 1   
    43    22    41 1   
    44    22    42 1   
    45    23    43 1   
    46    23    44 1   
    47    23    45 1   
@<TRIPOS>SUBSTRUCTURE
     1 BRZ         1 TEMP              0 ****  ****    0 ROOT
