@<TRIPOS>MOLECULE
BRZ
   45    47     1     0     0
SMALL
bcc


@<TRIPOS>ATOM
      1 C1           0.5610    -0.3620    -0.2860 ca         1 BRZ      -0.197800
      2 C2          -0.5070    -1.2610    -0.4490 ca         1 BRZ      -0.016000
      3 C3          -1.7700    -0.7710    -0.6510 ca         1 BRZ      -0.204300
      4 C4          -1.9840     0.6100    -0.6910 ca         1 BRZ       0.178100
      5 C5          -0.9670     1.5310    -0.5370 ca         1 BRZ      -0.191000
      6 C6           0.3050     1.0070    -0.3360 ca         1 BRZ       0.211100
      7 O7           1.3220     1.8800    -0.1870 os         1 BRZ      -0.339200
      8 C8           2.6230     1.5280     0.0140 c          1 BRZ       0.752800
      9 C9           2.9300     0.1040     0.1040 cc         1 BRZ      -0.208400
     10 C10          1.9110    -0.7710    -0.0640 cd         1 BRZ      -0.018200
     11 O11         -3.2640     0.9330    -0.8980 os         1 BRZ      -0.295900
     12 C12         -4.0730    -0.2650    -0.8860 c5         1 BRZ       0.112100
     13 C13         -3.0850    -1.4510    -0.8660 c5         1 BRZ      -0.044100
     14 O14          3.4030     2.4460     0.0910 o          1 BRZ      -0.561500
     15 C15          4.3730    -0.3390     0.3300 c3         1 BRZ       0.051400
     16 C16          5.2240     0.0340    -0.8870 c3         1 BRZ      -0.084600
     17 C17          4.9590     0.3060     1.6020 c3         1 BRZ      -0.084600
     18 C18          4.3960    -1.8270     0.5900 c2         1 BRZ      -0.171200
     19 C19          4.9850    -2.7620    -0.1460 c2         1 BRZ      -0.215000
     20 C20         -5.0510    -0.2130     0.3030 c3         1 BRZ       0.153800
     21 O21         -5.8630    -1.3730     0.2220 oh         1 BRZ      -0.595800
     22 C22         -5.9890     0.9770     0.1500 c3         1 BRZ      -0.104100
     23 C23         -4.3210    -0.1410     1.6410 c3         1 BRZ      -0.104100
     24 HC2         -0.3190    -2.3270    -0.4130 ha         1 BRZ       0.140000
     25 HC5         -1.1400     2.5990    -0.5680 ha         1 BRZ       0.174000
     26 HC10         2.1040    -1.8370    -0.0340 ha         1 BRZ       0.144000
     27 HC12        -4.6600    -0.2600    -1.8080 h1         1 BRZ       0.087700
     28 HC11        -3.3000    -2.1790    -0.0810 hc         1 BRZ       0.063700
     29 HC1A        -3.1050    -1.9980    -1.8100 hc         1 BRZ       0.063700
     30 HC61         5.2190     1.1090    -1.0530 hc         1 BRZ       0.043533
     31 HC62         6.2610    -0.2710    -0.7360 hc         1 BRZ       0.043533
     32 HC63         4.8580    -0.4480    -1.7940 hc         1 BRZ       0.043533
     33 HC71         4.3380     0.0880     2.4730 hc         1 BRZ       0.043533
     34 HC72         5.9520    -0.1020     1.7910 hc         1 BRZ       0.043533
     35 HC73         5.0530     1.3850     1.5100 hc         1 BRZ       0.043533
     36 HC18         3.8950    -2.1320     1.5060 ha         1 BRZ       0.116000
     37 HC91         4.9680    -3.7990     0.1610 ha         1 BRZ       0.114000
     38 HC92         5.5020    -2.5410    -1.0710 ha         1 BRZ       0.114000
     39 HO21        -5.3780    -2.1270     0.5740 ho         1 BRZ       0.403000
     40 HC21        -5.4390     1.9160     0.1640 hc         1 BRZ       0.049033
     41 HC22        -6.5430     0.9250    -0.7890 hc         1 BRZ       0.049033
     42 HC23        -6.7100     1.0000     0.9690 hc         1 BRZ       0.049033
     43 HC31        -5.0410    -0.1720     2.4610 hc         1 BRZ       0.049033
     44 HC32        -3.6240    -0.9720     1.7820 hc         1 BRZ       0.049033
     45 HC33        -3.7550     0.7850     1.7370 hc         1 BRZ       0.049033
@<TRIPOS>BOND
     1     1     2 ar  
     2     1     6 ar  
     3     1    10 1   
     4     2     3 ar  
     5     2    24 1   
     6     3     4 ar  
     7     3    13 1   
     8     4     5 ar  
     9     4    11 1   
    10     5     6 ar  
    11     5    25 1   
    12     6     7 1   
    13     7     8 1   
    14     8     9 1   
    15     8    14 2   
    16     9    10 2   
    17     9    15 1   
    18    10    26 1   
    19    11    12 1   
    20    12    13 1   
    21    12    20 1   
    22    12    27 1   
    23    13    28 1   
    24    13    29 1   
    25    15    16 1   
    26    15    17 1   
    27    15    18 1   
    28    16    30 1   
    29    16    31 1   
    30    16    32 1   
    31    17    33 1   
    32    17    34 1   
    33    17    35 1   
    34    18    19 2   
    35    18    36 1   
    36    19    37 1   
    37    19    38 1   
    38    20    21 1   
    39    20    22 1   
    40    20    23 1   
    41    21    39 1   
    42    22    40 1   
    43    22    41 1   
    44    22    42 1   
    45    23    43 1   
    46    23    44 1   
    47    23    45 1   
@<TRIPOS>SUBSTRUCTURE
     1 BRZ         1 TEMP              0 ****  ****    0 ROOT
