@<TRIPOS>MOLECULE
BS0
   40    43     1     0     0
SMALL
No Charge or Current Charge


@<TRIPOS>ATOM
      1 CAA         -5.5160     1.7150    -0.2010 ca         1 BS0      -0.167500
      2 CAB         -6.7880     2.1540     0.2130 ca         1 BS0      -0.073500
      3 CAC         -7.6170     1.3030     0.9630 ca         1 BS0      -0.143000
      4 CAD         -7.1780     0.0120     1.3030 ca         1 BS0      -0.073500
      5 CAE         -5.9080    -0.4260     0.8900 ca         1 BS0      -0.167500
      6 CAF         -5.0720     0.4180     0.1390 ca         1 BS0       0.141100
      7 CAH         -2.9040     0.7150    -1.0140 c3         1 BS0       0.131300
      8 CAI         -1.6560    -0.0950    -1.2700 cc         1 BS0       0.411700
      9 CAK          0.4860    -0.7030    -1.2090 cd         1 BS0       0.355500
     10 CAL         -0.0210    -1.7130    -1.9980 cc         1 BS0      -0.284000
     11 CAN          1.9060    -0.5670    -0.8060 ca         1 BS0      -0.143500
     12 CAO          2.8750    -1.5070    -1.2290 ca         1 BS0      -0.064000
     13 CAP          2.3240     0.5120     0.0090 ca         1 BS0      -0.041000
     14 CAQ          4.2200    -1.3720    -0.8480 ca         1 BS0      -0.161000
     15 CAR          3.6710     0.6440     0.3980 ca         1 BS0      -0.132300
     16 CAS          4.6170    -0.3020    -0.0330 ca         1 BS0      -0.007000
     17 CAT          4.1230     1.8390     1.2460 c6         1 BS0      -0.022100
     18 CAU          5.4030     1.5320     2.0680 c6         1 BS0      -0.161400
     19 CAW          6.4600     0.7380     1.2840 c          1 BS0       0.570000
     20 NAM         -0.4570     0.2290    -0.7950 nd         1 BS0      -0.647000
     21 NAV          5.9630    -0.1570     0.3590 ns         1 BS0      -0.149000
     22 OAG         -3.8380    -0.0690    -0.2370 os         1 BS0      -0.359100
     23 OAX          7.6610     0.9060     1.4550 o          1 BS0      -0.542000
     24 SAJ         -1.7310    -1.5310    -2.2550 ss         1 BS0       0.051600
     25 H1          -4.8950     2.3920    -0.7790 ha         1 BS0       0.122500
     26 H2          -7.1300     3.1530    -0.0490 ha         1 BS0       0.114500
     27 H3          -8.5990     1.6440     1.2820 ha         1 BS0       0.117000
     28 H4          -7.8200    -0.6470     1.8840 ha         1 BS0       0.114500
     29 H5          -5.5680    -1.4250     1.1520 ha         1 BS0       0.122500
     30 H6          -2.6310     1.6330    -0.4790 h1         1 BS0       0.063700
     31 H7          -3.3430     0.9960    -1.9790 h1         1 BS0       0.063700
     32 H8           0.4900    -2.5520    -2.4480 h4         1 BS0       0.161000
     33 H9           2.5980    -2.3480    -1.8580 ha         1 BS0       0.114000
     34 H10          1.6070     1.2590     0.3420 ha         1 BS0       0.135000
     35 H11          4.9520    -2.1030    -1.1830 ha         1 BS0       0.118000
     36 H12          4.3180     2.6900     0.5780 hc         1 BS0       0.059200
     37 H13          3.3170     2.1580     1.9220 hc         1 BS0       0.059200
     38 H14          5.8490     2.4200     2.5340 hc         1 BS0       0.076700
     39 H15          5.0820     0.8600     2.8740 hc         1 BS0       0.076700
     40 H16          6.6410    -0.7210    -0.1360 hn         1 BS0       0.158000
@<TRIPOS>BOND
     1     1     2 ar  
     2     1     6 ar  
     3     1    25 1   
     4     2     3 ar  
     5     2    26 1   
     6     3     4 ar  
     7     3    27 1   
     8     4     5 ar  
     9     4    28 1   
    10     5     6 ar  
    11     5    29 1   
    12     6    22 1   
    13     7     8 1   
    14     7    22 1   
    15     7    30 1   
    16     7    31 1   
    17     8    20 2   
    18     8    24 1   
    19     9    10 2   
    20     9    11 1   
    21     9    20 1   
    22    10    24 1   
    23    10    32 1   
    24    11    12 ar  
    25    11    13 ar  
    26    12    14 ar  
    27    12    33 1   
    28    13    15 ar  
    29    13    34 1   
    30    14    16 ar  
    31    14    35 1   
    32    15    16 ar  
    33    15    17 1   
    34    16    21 1   
    35    17    18 1   
    36    17    36 1   
    37    17    37 1   
    38    18    19 1   
    39    18    38 1   
    40    18    39 1   
    41    19    21 1   
    42    19    23 2   
    43    21    40 1   
@<TRIPOS>SUBSTRUCTURE
     1 BS0         1 TEMP              0 ****  ****    0 ROOT
