@<TRIPOS>MOLECULE
BS0
   40    43     1     0     0
SMALL
bcc


@<TRIPOS>ATOM
      1 CAA         -5.3810     1.6570     0.4920 ca         1 BS0      -0.185500
      2 CAB         -6.6760     2.1330     0.6700 ca         1 BS0      -0.091500
      3 CAC         -7.7730     1.3720     0.3000 ca         1 BS0      -0.161000
      4 CAD         -7.5690     0.1140    -0.2570 ca         1 BS0      -0.091500
      5 CAE         -6.2870    -0.3750    -0.4420 ca         1 BS0      -0.185500
      6 CAF         -5.1880     0.3980    -0.0670 ca         1 BS0       0.141100
      7 CAH         -2.8210     0.5740     0.0620 c3         1 BS0       0.108100
      8 CAI         -1.6520    -0.2760    -0.3070 cc         1 BS0       0.411700
      9 CAK          0.4460    -0.8950    -0.5680 cd         1 BS0       0.420800
     10 CAL         -0.1680    -2.0050    -1.0740 cc         1 BS0      -0.222400
     11 CAN          1.8910    -0.6730    -0.4540 ca         1 BS0      -0.143500
     12 CAO          2.8110    -1.6270    -0.8910 ca         1 BS0      -0.082000
     13 CAP          2.3840     0.5100     0.1000 ca         1 BS0      -0.059000
     14 CAQ          4.1710    -1.4110    -0.7720 ca         1 BS0      -0.179000
     15 CAR          3.7430     0.7500     0.2150 ca         1 BS0      -0.132300
     16 CAS          4.6420    -0.2250    -0.2180 ca         1 BS0       0.085600
     17 CAT          4.3090     2.0290     0.7540 c6         1 BS0      -0.022100
     18 CAU          5.6040     1.7610     1.5100 c6         1 BS0      -0.161400
     19 CAW          6.5800     0.9410     0.7050 c          1 BS0       0.712500
     20 NAM         -0.4230     0.0740    -0.1380 nd         1 BS0      -0.647000
     21 NAV          6.0110     0.0090    -0.1060 ns         1 BS0      -0.475100
     22 OAG         -3.9730    -0.1560    -0.2800 os         1 BS0      -0.335900
     23 OAX          7.7900     1.0630     0.7830 o          1 BS0      -0.617500
     24 SAJ         -1.8680    -1.8320    -1.0110 ss         1 BS0      -0.093300
     25 H1          -4.5470     2.2770     0.7930 ha         1 BS0       0.140500
     26 H2          -6.8190     3.1130     1.1070 ha         1 BS0       0.132500
     27 H3          -8.7760     1.7520     0.4420 ha         1 BS0       0.135000
     28 H4          -8.4150    -0.4950    -0.5490 ha         1 BS0       0.132500
     29 H5          -6.1270    -1.3540    -0.8750 ha         1 BS0       0.140500
     30 H6          -2.7870     0.7970     1.1350 h1         1 BS0       0.063700
     31 H7          -2.7680     1.5240    -0.4800 h1         1 BS0       0.063700
     32 H8           0.2800    -2.9010    -1.4740 h4         1 BS0       0.179000
     33 H9           2.4740    -2.5580    -1.3270 ha         1 BS0       0.132000
     34 H10          1.6900     1.2690     0.4410 ha         1 BS0       0.153000
     35 H11          4.8690    -2.1690    -1.1060 ha         1 BS0       0.136000
     36 H12          4.5050     2.7180    -0.0740 hc         1 BS0       0.059200
     37 H13          3.5910     2.5260     1.4070 hc         1 BS0       0.059200
     38 H14          6.0900     2.6890     1.8060 hc         1 BS0       0.076700
     39 H15          5.3910     1.2030     2.4280 hc         1 BS0       0.076700
     40 H16          6.6380    -0.6160    -0.5950 hn         1 BS0       0.324500
@<TRIPOS>BOND
     1     1     2 ar  
     2     1     6 ar  
     3     1    25 1   
     4     2     3 ar  
     5     2    26 1   
     6     3     4 ar  
     7     3    27 1   
     8     4     5 ar  
     9     4    28 1   
    10     5     6 ar  
    11     5    29 1   
    12     6    22 1   
    13     7     8 1   
    14     7    22 1   
    15     7    30 1   
    16     7    31 1   
    17     8    20 2   
    18     8    24 1   
    19     9    10 2   
    20     9    11 1   
    21     9    20 1   
    22    10    24 1   
    23    10    32 1   
    24    11    12 ar  
    25    11    13 ar  
    26    12    14 ar  
    27    12    33 1   
    28    13    15 ar  
    29    13    34 1   
    30    14    16 ar  
    31    14    35 1   
    32    15    16 ar  
    33    15    17 1   
    34    16    21 1   
    35    17    18 1   
    36    17    36 1   
    37    17    37 1   
    38    18    19 1   
    39    18    38 1   
    40    18    39 1   
    41    19    21 1   
    42    19    23 2   
    43    21    40 1   
@<TRIPOS>SUBSTRUCTURE
     1 BS0         1 TEMP              0 ****  ****    0 ROOT
