@<TRIPOS>MOLECULE
BS1
   56    60     1     0     0
SMALL
No Charge or Current Charge


@<TRIPOS>ATOM
      1 C17          5.1600     0.3680    -0.9440 c3         1 BS1       0.077400
      2 N1           3.8410     0.2650    -0.1460 n4         1 BS1      -0.510000
      3 C16          4.2330    -0.2480     1.2560 c3         1 BS1       0.077400
      4 C3           3.0580     1.6110    -0.1340 c5         1 BS1       0.128300
      5 C12          2.6140     1.7380    -1.6270 c5         1 BS1      -0.102400
      6 C13          2.4350     0.2550    -2.1180 c5         1 BS1      -0.102400
      7 C2           2.7850    -0.6200    -0.8710 c5         1 BS1       0.128300
      8 C8           1.8560     1.5340     0.8520 c6         1 BS1      -0.120400
      9 C6           0.8400     0.4350     0.4630 c6         1 BS1       0.175300
     10 C7           1.5570    -0.8780     0.0490 c6         1 BS1      -0.120400
     11 O1          -0.0540     0.2200     1.5750 os         1 BS1      -0.453000
     12 C1          -1.4430    -0.1090     1.3180 c3         1 BS1       0.266900
     13 C5          -1.5320    -1.5640     0.8070 ca         1 BS1      -0.120800
     14 C19         -1.3250    -2.5690     1.7800 ca         1 BS1      -0.101500
     15 C23         -1.3240    -3.9290     1.4390 ca         1 BS1      -0.113000
     16 C26         -1.5260    -4.3140     0.1090 ca         1 BS1      -0.091000
     17 C21         -1.7280    -3.3340    -0.8730 ca         1 BS1      -0.116500
     18 C9          -1.7320    -1.9630    -0.5390 ca         1 BS1      -0.061800
     19 C15         -1.9830    -0.9610    -1.6430 c3         1 BS1      -0.031600
     20 C14         -3.2340    -0.1360    -1.3440 c3         1 BS1      -0.031600
     21 C10         -2.9410     1.1080    -0.5230 ca         1 BS1      -0.061800
     22 C22         -3.5200     2.3160    -0.9750 ca         1 BS1      -0.116500
     23 C25         -3.3090     3.5220    -0.2950 ca         1 BS1      -0.091000
     24 C24         -2.5180     3.5350     0.8570 ca         1 BS1      -0.113000
     25 C18         -1.9430     2.3440     1.3210 ca         1 BS1      -0.101500
     26 C4          -2.1290     1.1120     0.6470 ca         1 BS1      -0.120800
     27 H171         5.6240    -0.6190    -0.9950 hx         1 BS1       0.093700
     28 H172         4.9600     0.7280    -1.9540 hx         1 BS1       0.093700
     29 H173         5.8310     1.0630    -0.4370 hx         1 BS1       0.093700
     30 H161         4.9220     0.4630     1.7160 hx         1 BS1       0.093700
     31 H162         3.3450    -0.3510     1.8800 hx         1 BS1       0.093700
     32 H163         4.7210    -1.2200     1.1560 hx         1 BS1       0.093700
     33 H3           3.7400     2.4090     0.1750 hx         1 BS1       0.102700
     34 H2           3.2530    -1.5720    -1.1390 hx         1 BS1       0.102700
     35 H121         1.6980     2.3300    -1.7370 hc         1 BS1       0.086450
     36 H122         3.3810     2.2520    -2.2170 hc         1 BS1       0.086450
     37 H81C         2.2110     1.3820     1.8780 hc         1 BS1       0.089200
     38 H82C         1.3400     2.5030     0.8610 hc         1 BS1       0.089200
     39 H131         1.4250     0.0540    -2.4930 hc         1 BS1       0.086450
     40 H132         3.1160     0.0360    -2.9480 hc         1 BS1       0.086450
     41 H71C         0.8630    -1.5280    -0.4940 hc         1 BS1       0.089200
     42 H72C         1.8540    -1.4470     0.9380 hc         1 BS1       0.089200
     43 H6           0.2640     0.8110    -0.3950 h1         1 BS1       0.064700
     44 H1          -1.9420    -0.1530     2.2960 h1         1 BS1       0.096700
     45 H19         -1.1480    -2.2900     2.8170 ha         1 BS1       0.118500
     46 H23         -1.1610    -4.6840     2.2060 ha         1 BS1       0.125000
     47 H26         -1.5250    -5.3680    -0.1620 ha         1 BS1       0.126000
     48 H21         -1.8870    -3.6480    -1.9020 ha         1 BS1       0.119000
     49 H151        -1.1200    -0.3030    -1.7940 hc         1 BS1       0.054450
     50 H152        -2.1330    -1.4780    -2.5990 hc         1 BS1       0.054450
     51 H141        -3.6820     0.1440    -2.3050 hc         1 BS1       0.054450
     52 H142        -3.9820    -0.7600    -0.8400 hc         1 BS1       0.054450
     53 H22         -4.1430     2.3250    -1.8660 ha         1 BS1       0.119000
     54 H25         -3.7610     4.4430    -0.6590 ha         1 BS1       0.126000
     55 H24         -2.3530     4.4670     1.3950 ha         1 BS1       0.125000
     56 H18         -1.3410     2.3800     2.2270 ha         1 BS1       0.118500
@<TRIPOS>BOND
     1     1     2 1   
     2     1    27 1   
     3     1    28 1   
     4     1    29 1   
     5     2     3 1   
     6     2     4 1   
     7     2     7 1   
     8     3    30 1   
     9     3    31 1   
    10     3    32 1   
    11     4     5 1   
    12     4     8 1   
    13     4    33 1   
    14     5     6 1   
    15     5    35 1   
    16     5    36 1   
    17     6     7 1   
    18     6    39 1   
    19     6    40 1   
    20     7    10 1   
    21     7    34 1   
    22     8     9 1   
    23     8    37 1   
    24     8    38 1   
    25     9    10 1   
    26     9    11 1   
    27     9    43 1   
    28    10    41 1   
    29    10    42 1   
    30    11    12 1   
    31    12    13 1   
    32    12    26 1   
    33    12    44 1   
    34    13    14 ar  
    35    13    18 ar  
    36    14    15 ar  
    37    14    45 1   
    38    15    16 ar  
    39    15    46 1   
    40    16    17 ar  
    41    16    47 1   
    42    17    18 ar  
    43    17    48 1   
    44    18    19 1   
    45    19    20 1   
    46    19    49 1   
    47    19    50 1   
    48    20    21 1   
    49    20    51 1   
    50    20    52 1   
    51    21    22 ar  
    52    21    26 ar  
    53    22    23 ar  
    54    22    53 1   
    55    23    24 ar  
    56    23    54 1   
    57    24    25 ar  
    58    24    55 1   
    59    25    26 ar  
    60    25    56 1   
@<TRIPOS>SUBSTRUCTURE
     1 BS1         1 TEMP              0 ****  ****    0 ROOT
