@<TRIPOS>MOLECULE
BS1
   56    60     1     0     0
SMALL
abcg2


@<TRIPOS>ATOM
      1 C17          4.9850     0.4980    -0.8970 c3         1 BS1       0.077400
      2 N1           3.7410     0.3650    -0.0850 n4         1 BS1      -0.510000
      3 C16          4.1830     0.2490     1.3280 c3         1 BS1       0.077400
      4 C3           2.8030     1.5260    -0.3600 c5         1 BS1       0.128300
      5 C12          2.3510     1.2450    -1.7970 c5         1 BS1      -0.102400
      6 C13          2.4190    -0.2920    -1.9440 c5         1 BS1      -0.102400
      7 C2           2.8970    -0.7970    -0.5770 c5         1 BS1       0.128300
      8 C8           1.6390     1.4910     0.6190 c6         1 BS1      -0.120400
      9 C6           0.8240     0.2040     0.4790 c6         1 BS1       0.175300
     10 C7           1.7260    -1.0310     0.3680 c6         1 BS1      -0.120400
     11 O1          -0.0440     0.0850     1.5840 os         1 BS1      -0.453000
     12 C1          -1.4180    -0.1510     1.2880 c3         1 BS1       0.266900
     13 C5          -1.5500    -1.5270     0.6550 ca         1 BS1      -0.120800
     14 C19         -1.3810    -2.5800     1.5590 ca         1 BS1      -0.101500
     15 C23         -1.3180    -3.8990     1.1480 ca         1 BS1      -0.113000
     16 C26         -1.4260    -4.1930    -0.2040 ca         1 BS1      -0.091000
     17 C21         -1.6140    -3.1620    -1.1080 ca         1 BS1      -0.116500
     18 C9          -1.6810    -1.8270    -0.7040 ca         1 BS1      -0.061800
     19 C15         -1.9710    -0.7830    -1.7420 c3         1 BS1      -0.031600
     20 C14         -3.1680     0.0830    -1.3620 c3         1 BS1      -0.031600
     21 C10         -2.8340     1.2270    -0.4460 ca         1 BS1      -0.061800
     22 C22         -3.3510     2.4830    -0.7820 ca         1 BS1      -0.116500
     23 C25         -3.1090     3.6090    -0.0180 ca         1 BS1      -0.091000
     24 C24         -2.3270     3.4950     1.1230 ca         1 BS1      -0.113000
     25 C18         -1.8090     2.2600     1.4660 ca         1 BS1      -0.101500
     26 C4          -2.0410     1.1110     0.6990 ca         1 BS1      -0.120800
     27 H171         5.5870    -0.3970    -0.7640 hx         1 BS1       0.093700
     28 H172         4.7630     0.6260    -1.9500 hx         1 BS1       0.093700
     29 H173         5.5370     1.3640    -0.5410 hx         1 BS1       0.093700
     30 H161         4.7000     1.1650     1.6040 hx         1 BS1       0.093700
     31 H162         3.3540     0.0910     2.0050 hx         1 BS1       0.093700
     32 H163         4.8670    -0.5920     1.4060 hx         1 BS1       0.093700
     33 H3           3.3700     2.4510    -0.2570 hx         1 BS1       0.102700
     34 H2           3.5340    -1.6790    -0.6330 hx         1 BS1       0.102700
     35 H121         1.3470     1.6360    -1.9620 hc         1 BS1       0.086450
     36 H122         2.9970     1.7410    -2.5190 hc         1 BS1       0.086450
     37 H81C         1.9820     1.6250     1.6460 hc         1 BS1       0.089200
     38 H82C         1.0040     2.3520     0.4020 hc         1 BS1       0.089200
     39 H131         1.4520    -0.7320    -2.1860 hc         1 BS1       0.086450
     40 H132         3.1010    -0.5880    -2.7390 hc         1 BS1       0.086450
     41 H71C         1.1650    -1.8760    -0.0350 hc         1 BS1       0.089200
     42 H72C         2.0670    -1.3450     1.3560 hc         1 BS1       0.089200
     43 H6           0.2380     0.2870    -0.4440 h1         1 BS1       0.064700
     44 H1          -1.8650    -0.2480     2.2820 h1         1 BS1       0.096700
     45 H19         -1.2860    -2.3560     2.6150 ha         1 BS1       0.118500
     46 H23         -1.1890    -4.6890     1.8760 ha         1 BS1       0.125000
     47 H26         -1.3790    -5.2180    -0.5500 ha         1 BS1       0.126000
     48 H21         -1.7220    -3.3920    -2.1620 ha         1 BS1       0.119000
     49 H151        -1.1020    -0.1440    -1.9320 hc         1 BS1       0.054450
     50 H152        -2.1780    -1.2820    -2.6900 hc         1 BS1       0.054450
     51 H141        -3.6110     0.4930    -2.2710 hc         1 BS1       0.054450
     52 H142        -3.9390    -0.5510    -0.9130 hc         1 BS1       0.054450
     53 H22         -3.9560     2.5700    -1.6770 ha         1 BS1       0.119000
     54 H25         -3.5240     4.5650    -0.3110 ha         1 BS1       0.126000
     55 H24         -2.1250     4.3580     1.7430 ha         1 BS1       0.125000
     56 H18         -1.2060     2.1840     2.3620 ha         1 BS1       0.118500
@<TRIPOS>BOND
     1     1     2 1   
     2     1    27 1   
     3     1    28 1   
     4     1    29 1   
     5     2     3 1   
     6     2     4 1   
     7     2     7 1   
     8     3    30 1   
     9     3    31 1   
    10     3    32 1   
    11     4     5 1   
    12     4     8 1   
    13     4    33 1   
    14     5     6 1   
    15     5    35 1   
    16     5    36 1   
    17     6     7 1   
    18     6    39 1   
    19     6    40 1   
    20     7    10 1   
    21     7    34 1   
    22     8     9 1   
    23     8    37 1   
    24     8    38 1   
    25     9    10 1   
    26     9    11 1   
    27     9    43 1   
    28    10    41 1   
    29    10    42 1   
    30    11    12 1   
    31    12    13 1   
    32    12    26 1   
    33    12    44 1   
    34    13    14 ar  
    35    13    18 ar  
    36    14    15 ar  
    37    14    45 1   
    38    15    16 ar  
    39    15    46 1   
    40    16    17 ar  
    41    16    47 1   
    42    17    18 ar  
    43    17    48 1   
    44    18    19 1   
    45    19    20 1   
    46    19    49 1   
    47    19    50 1   
    48    20    21 1   
    49    20    51 1   
    50    20    52 1   
    51    21    22 ar  
    52    21    26 ar  
    53    22    23 ar  
    54    22    53 1   
    55    23    24 ar  
    56    23    54 1   
    57    24    25 ar  
    58    24    55 1   
    59    25    26 ar  
    60    25    56 1   
@<TRIPOS>SUBSTRUCTURE
     1 BS1         1 TEMP              0 ****  ****    0 ROOT
