@<TRIPOS>MOLECULE
BS2
   63    68     1     0     0
SMALL
No Charge or Current Charge


@<TRIPOS>ATOM
      1 CAY         -2.3740     1.3920    -0.7130 ca         1 BS2      -0.119800
      2 CAL         -2.0420     2.1590    -1.8530 ca         1 BS2      -0.103500
      3 CAF         -1.7890     3.5360    -1.7600 ca         1 BS2      -0.112500
      4 CAD         -1.8580     4.1740    -0.5170 ca         1 BS2      -0.089000
      5 CAJ         -2.1800     3.4310     0.6270 ca         1 BS2      -0.114000
      6 CAW         -2.4370     2.0450     0.5430 ca         1 BS2      -0.058300
      7 CAN         -2.8040     1.3060     1.8100 c3         1 BS2      -0.032100
      8 CAO         -4.2040     0.7040     1.6920 c3         1 BS2      -0.032100
      9 CAX         -4.2190    -0.6810     1.0640 ca         1 BS2      -0.058300
     10 CAK         -5.0340    -1.6500     1.6930 ca         1 BS2      -0.114000
     11 CAE         -5.1210    -2.9590     1.2020 ca         1 BS2      -0.089000
     12 CAG         -4.3940    -3.3190     0.0640 ca         1 BS2      -0.112500
     13 CAM         -3.5880    -2.3680    -0.5760 ca         1 BS2      -0.103500
     14 CAZ         -3.4740    -1.0400    -0.0970 ca         1 BS2      -0.119800
     15 CBD         -2.5590    -0.1220    -0.9480 c3         1 BS2       0.270900
     16 OAU         -1.2620    -0.7520    -1.1080 os         1 BS2      -0.472000
     17 CBA         -0.4290    -1.0000     0.0500 c6         1 BS2       0.178300
     18 CAT          0.5390     0.1810     0.3590 c6         1 BS2      -0.120900
     19 CAS          0.3600    -2.3190    -0.1580 c6         1 BS2      -0.120900
     20 CBB          1.6570    -2.1470    -0.9960 c5         1 BS2       0.125300
     21 CAP          1.4710    -1.4360    -2.3710 c5         1 BS2      -0.087400
     22 CAQ          1.5690     0.1020    -2.0510 c5         1 BS2      -0.087400
     23 CBC          1.8200     0.1760    -0.5150 c5         1 BS2       0.125300
     24 NBE          2.5410    -1.1410    -0.2800 nx         1 BS2      -0.679000
     25 CAR          4.0170    -1.1660    -0.6520 c3         1 BS2       0.159900
     26 CAV          4.8580    -0.3030     0.2640 ca         1 BS2      -0.170300
     27 CAH          5.2880    -0.8030     1.5080 ca         1 BS2      -0.088500
     28 CAB          6.0560     0.0050     2.3650 ca         1 BS2      -0.097000
     29 CAA          6.3960     1.3140     1.9820 ca         1 BS2      -0.065000
     30 CAC          5.9670     1.8150     0.7410 ca         1 BS2      -0.097000
     31 CAI          5.1990     1.0080    -0.1160 ca         1 BS2      -0.088500
     32 HAL         -1.9650     1.6780    -2.8260 ha         1 BS2       0.113500
     33 HBD         -3.0430    -0.1610    -1.9330 h1         1 BS2       0.087700
     34 HAF         -1.5340     4.1050    -2.6520 ha         1 BS2       0.124000
     35 HAD         -1.6620     5.2410    -0.4380 ha         1 BS2       0.126000
     36 HAJ         -2.2330     3.9400     1.5870 ha         1 BS2       0.120000
     37 HAN1        -2.0720     0.5270     2.0490 hc         1 BS2       0.055450
     38 HAN2        -2.7970     1.9920     2.6650 hc         1 BS2       0.055450
     39 HAO1        -4.6270     0.6600     2.7030 hc         1 BS2       0.055450
     40 HAO2        -4.8550     1.3830     1.1290 hc         1 BS2       0.055450
     41 HAK         -5.6110    -1.3880     2.5770 ha         1 BS2       0.120000
     42 HAE         -5.7520    -3.6910     1.7020 ha         1 BS2       0.126000
     43 HAG         -4.4580    -4.3320    -0.3270 ha         1 BS2       0.124000
     44 HAM         -3.0390    -2.6690    -1.4660 ha         1 BS2       0.113500
     45 HBA         -1.0890    -1.1510     0.9150 h1         1 BS2       0.079700
     46 HAT1         0.0380     1.1450     0.2390 hc         1 BS2       0.084200
     47 HAT2         0.8330     0.1340     1.4150 hc         1 BS2       0.084200
     48 HAS1         0.6230    -2.7400     0.8210 hc         1 BS2       0.084200
     49 HAS2        -0.2910    -3.0630    -0.6360 hc         1 BS2       0.084200
     50 HBC          2.4650     1.0140    -0.2290 hx         1 BS2       0.102700
     51 HBB          2.1710    -3.1100    -1.0830 hx         1 BS2       0.102700
     52 HAP1         2.2650    -1.7330    -3.0640 hc         1 BS2       0.087200
     53 HAP2         0.5250    -1.7080    -2.8520 hc         1 BS2       0.087200
     54 HAQ1         2.4050     0.5540    -2.5960 hc         1 BS2       0.087200
     55 HAQ2         0.6710     0.6540    -2.3480 hc         1 BS2       0.087200
     56 HAR1         4.3630    -2.2010    -0.6030 hx         1 BS2       0.095200
     57 HAR2         4.1180    -0.8340    -1.6890 hx         1 BS2       0.095200
     58 HAH          5.0280    -1.8150     1.8110 ha         1 BS2       0.115500
     59 HAI          4.8670     1.4040    -1.0740 ha         1 BS2       0.115500
     60 HAB          6.3880    -0.3840     3.3260 ha         1 BS2       0.136500
     61 HAA          6.9900     1.9390     2.6460 ha         1 BS2       0.138000
     62 HAC          6.2280     2.8290     0.4450 ha         1 BS2       0.136500
     63 HBE          2.5000    -1.3450     0.7390 hn         1 BS2       0.494000
@<TRIPOS>BOND
     1     1     2 ar  
     2     1     6 ar  
     3     1    15 1   
     4     2     3 ar  
     5     2    32 1   
     6     3     4 ar  
     7     3    34 1   
     8     4     5 ar  
     9     4    35 1   
    10     5     6 ar  
    11     5    36 1   
    12     6     7 1   
    13     7     8 1   
    14     7    37 1   
    15     7    38 1   
    16     8     9 1   
    17     8    39 1   
    18     8    40 1   
    19     9    10 ar  
    20     9    14 ar  
    21    10    11 ar  
    22    10    41 1   
    23    11    12 ar  
    24    11    42 1   
    25    12    13 ar  
    26    12    43 1   
    27    13    14 ar  
    28    13    44 1   
    29    14    15 1   
    30    15    16 1   
    31    15    33 1   
    32    16    17 1   
    33    17    18 1   
    34    17    19 1   
    35    17    45 1   
    36    18    23 1   
    37    18    46 1   
    38    18    47 1   
    39    19    20 1   
    40    19    48 1   
    41    19    49 1   
    42    20    21 1   
    43    20    24 1   
    44    20    51 1   
    45    21    22 1   
    46    21    52 1   
    47    21    53 1   
    48    22    23 1   
    49    22    54 1   
    50    22    55 1   
    51    23    24 1   
    52    23    50 1   
    53    24    25 1   
    54    24    63 1   
    55    25    26 1   
    56    25    56 1   
    57    25    57 1   
    58    26    27 ar  
    59    26    31 ar  
    60    27    28 ar  
    61    27    58 1   
    62    28    29 ar  
    63    28    60 1   
    64    29    30 ar  
    65    29    61 1   
    66    30    31 ar  
    67    30    62 1   
    68    31    59 1   
@<TRIPOS>SUBSTRUCTURE
     1 BS2         1 TEMP              0 ****  ****    0 ROOT
