@<TRIPOS>MOLECULE
BS2
   63    68     1     0     0
SMALL
abcg2


@<TRIPOS>ATOM
      1 CAY         -2.3700     1.3830    -0.7090 ca         1 BS2      -0.119800
      2 CAL         -2.1100     2.1330    -1.8570 ca         1 BS2      -0.103500
      3 CAF         -1.8590     3.4940    -1.8020 ca         1 BS2      -0.112500
      4 CAD         -1.8670     4.1350    -0.5720 ca         1 BS2      -0.089000
      5 CAJ         -2.1350     3.4040     0.5740 ca         1 BS2      -0.114000
      6 CAW         -2.3860     2.0330     0.5270 ca         1 BS2      -0.058300
      7 CAN         -2.7150     1.3130     1.8010 c3         1 BS2      -0.032100
      8 CAO         -4.0850     0.6470     1.7410 c3         1 BS2      -0.032100
      9 CAX         -4.1120    -0.6910     1.0520 ca         1 BS2      -0.058300
     10 CAK         -4.9160    -1.6790     1.6320 ca         1 BS2      -0.114000
     11 CAE         -5.0240    -2.9510     1.1030 ca         1 BS2      -0.089000
     12 CAG         -4.3120    -3.2680    -0.0460 ca         1 BS2      -0.112500
     13 CAM         -3.5180    -2.3020    -0.6330 ca         1 BS2      -0.103500
     14 CAZ         -3.3980    -1.0080    -0.1080 ca         1 BS2      -0.119800
     15 CBD         -2.4880    -0.1110    -0.9410 c3         1 BS2       0.270900
     16 OAU         -1.1970    -0.6970    -1.0760 os         1 BS2      -0.472000
     17 CBA         -0.4390    -0.9760     0.0840 c6         1 BS2       0.178300
     18 CAT          0.5380     0.1520     0.4400 c6         1 BS2      -0.120900
     19 CAS          0.3280    -2.2780    -0.1570 c6         1 BS2      -0.120900
     20 CBB          1.6020    -2.0950    -0.9740 c5         1 BS2       0.125300
     21 CAP          1.4250    -1.3390    -2.2920 c5         1 BS2      -0.087400
     22 CAQ          1.5640     0.1520    -1.9180 c5         1 BS2      -0.087400
     23 CBC          1.8040     0.1600    -0.4080 c5         1 BS2       0.125300
     24 NBE          2.4920    -1.1620    -0.1930 nx         1 BS2      -0.679000
     25 CAR          3.9260    -1.2050    -0.6180 c3         1 BS2       0.159900
     26 CAV          4.7740    -0.3260     0.2510 ca         1 BS2      -0.170300
     27 CAH          5.1210    -0.7400     1.5350 ca         1 BS2      -0.088500
     28 CAB          5.8870     0.0790     2.3520 ca         1 BS2      -0.097000
     29 CAA          6.3180     1.3160     1.8890 ca         1 BS2      -0.065000
     30 CAC          5.9820     1.7310     0.6070 ca         1 BS2      -0.097000
     31 CAI          5.2130     0.9120    -0.2080 ca         1 BS2      -0.088500
     32 HAL         -2.0980     1.6340    -2.8200 ha         1 BS2       0.113500
     33 HBD         -2.8820    -0.2000    -1.9570 h1         1 BS2       0.087700
     34 HAF         -1.6620     4.0480    -2.7110 ha         1 BS2       0.124000
     35 HAD         -1.6760     5.1980    -0.5040 ha         1 BS2       0.126000
     36 HAJ         -2.1520     3.9060     1.5340 ha         1 BS2       0.120000
     37 HAN1        -1.9550     0.5660     2.0460 hc         1 BS2       0.055450
     38 HAN2        -2.7050     2.0310     2.6220 hc         1 BS2       0.055450
     39 HAO1        -4.4500     0.5050     2.7600 hc         1 BS2       0.055450
     40 HAO2        -4.7950     1.3290     1.2630 hc         1 BS2       0.055450
     41 HAK         -5.4620    -1.4350     2.5360 ha         1 BS2       0.120000
     42 HAE         -5.6560    -3.6870     1.5830 ha         1 BS2       0.126000
     43 HAG         -4.3780    -4.2560    -0.4830 ha         1 BS2       0.124000
     44 HAM         -2.9720    -2.5540    -1.5340 ha         1 BS2       0.113500
     45 HBA         -1.1050    -1.1390     0.9390 h1         1 BS2       0.079700
     46 HAT1         0.0620     1.1280     0.3490 hc         1 BS2       0.084200
     47 HAT2         0.8220     0.0530     1.4920 hc         1 BS2       0.084200
     48 HAS1         0.5960    -2.7210     0.8070 hc         1 BS2       0.084200
     49 HAS2        -0.3130    -3.0010    -0.6620 hc         1 BS2       0.084200
     50 HBC          2.4610     0.9610    -0.0760 hx         1 BS2       0.102700
     51 HBB          2.1180    -3.0480    -1.0850 hx         1 BS2       0.102700
     52 HAP1         2.1940    -1.6350    -3.0060 hc         1 BS2       0.087200
     53 HAP2         0.4640    -1.5730    -2.7400 hc         1 BS2       0.087200
     54 HAQ1         2.4060     0.6070    -2.4400 hc         1 BS2       0.087200
     55 HAQ2         0.6820     0.7350    -2.1690 hc         1 BS2       0.087200
     56 HAR1         4.2290    -2.2490    -0.5470 hx         1 BS2       0.095200
     57 HAR2         3.9840    -0.9070    -1.6630 hx         1 BS2       0.095200
     58 HAH          4.8030    -1.7110     1.8980 ha         1 BS2       0.115500
     59 HAI          4.9580     1.2380    -1.2100 ha         1 BS2       0.115500
     60 HAB          6.1540    -0.2510     3.3470 ha         1 BS2       0.136500
     61 HAA          6.9200     1.9520     2.5240 ha         1 BS2       0.138000
     62 HAC          6.3210     2.6910     0.2400 ha         1 BS2       0.136500
     63 HBE          2.4670    -1.4150     0.7970 hn         1 BS2       0.494000
@<TRIPOS>BOND
     1     1     2 ar  
     2     1     6 ar  
     3     1    15 1   
     4     2     3 ar  
     5     2    32 1   
     6     3     4 ar  
     7     3    34 1   
     8     4     5 ar  
     9     4    35 1   
    10     5     6 ar  
    11     5    36 1   
    12     6     7 1   
    13     7     8 1   
    14     7    37 1   
    15     7    38 1   
    16     8     9 1   
    17     8    39 1   
    18     8    40 1   
    19     9    10 ar  
    20     9    14 ar  
    21    10    11 ar  
    22    10    41 1   
    23    11    12 ar  
    24    11    42 1   
    25    12    13 ar  
    26    12    43 1   
    27    13    14 ar  
    28    13    44 1   
    29    14    15 1   
    30    15    16 1   
    31    15    33 1   
    32    16    17 1   
    33    17    18 1   
    34    17    19 1   
    35    17    45 1   
    36    18    23 1   
    37    18    46 1   
    38    18    47 1   
    39    19    20 1   
    40    19    48 1   
    41    19    49 1   
    42    20    21 1   
    43    20    24 1   
    44    20    51 1   
    45    21    22 1   
    46    21    52 1   
    47    21    53 1   
    48    22    23 1   
    49    22    54 1   
    50    22    55 1   
    51    23    24 1   
    52    23    50 1   
    53    24    25 1   
    54    24    63 1   
    55    25    26 1   
    56    25    56 1   
    57    25    57 1   
    58    26    27 ar  
    59    26    31 ar  
    60    27    28 ar  
    61    27    58 1   
    62    28    29 ar  
    63    28    60 1   
    64    29    30 ar  
    65    29    61 1   
    66    30    31 ar  
    67    30    62 1   
    68    31    59 1   
@<TRIPOS>SUBSTRUCTURE
     1 BS2         1 TEMP              0 ****  ****    0 ROOT
