@<TRIPOS>MOLECULE
BS4
   31    32     1     0     0
SMALL
No Charge or Current Charge


@<TRIPOS>ATOM
      1 NAA         -4.7070     2.6250    -0.4150 nv         1 BS4      -1.095000
      2 OAB          0.8050     0.3120     1.6450 o          1 BS4      -0.562100
      3 OAC         -0.9740    -2.7760    -0.9190 o          1 BS4      -0.533500
      4 OAD         -0.7850    -2.2820     1.5860 o          1 BS4      -0.533500
      5 CAE          5.1920     1.2470    -0.7490 ca         1 BS4      -0.082000
      6 CAF          4.6030     1.7910     0.4020 ca         1 BS4      -0.121000
      7 CAG          4.5250     0.2390    -1.4620 ca         1 BS4      -0.121000
      8 CAH          3.3500     1.3290     0.8400 ca         1 BS4      -0.065000
      9 CAI          3.2720    -0.2280    -1.0280 ca         1 BS4      -0.065000
     10 CAJ         -3.3730     0.9040    -1.4030 ca         1 BS4      -0.222500
     11 CAK         -3.3380     1.2640     0.9950 ca         1 BS4      -0.222500
     12 CAL         -2.4520    -0.1470    -1.2670 ca         1 BS4       0.052000
     13 CAM         -2.4160     0.2150     1.1460 ca         1 BS4       0.052000
     14 NAN          0.7000    -1.1280    -0.0920 ns         1 BS4      -0.575300
     15 CAO          1.3130    -0.1580     0.6390 c          1 BS4       0.646700
     16 CAP         -3.8130     1.6050    -0.2750 ca         1 BS4       0.382000
     17 CAQ          2.6630     0.3130     0.1340 ca         1 BS4      -0.159600
     18 CAR         -1.9730    -0.4940     0.0120 ca         1 BS4      -0.377500
     19 SAS         -0.7870    -1.8340     0.1890 sy         1 BS4       1.195300
     20 HNAA        -4.8960     2.9930    -1.3450 hn         1 BS4       0.476500
     21 HNAB        -4.8730     3.2520     0.3700 hn         1 BS4       0.476500
     22 HAE          6.1620     1.6060    -1.0880 ha         1 BS4       0.117000
     23 HAF          5.1170     2.5730     0.9570 ha         1 BS4       0.119000
     24 HAG          4.9820    -0.1840    -2.3540 ha         1 BS4       0.119000
     25 HAH          2.9130     1.7670     1.7360 ha         1 BS4       0.125000
     26 HAI          2.7910    -1.0110    -1.6090 ha         1 BS4       0.125000
     27 HAJ         -3.7420     1.1690    -2.3890 ha         1 BS4       0.117500
     28 HAK         -3.6780     1.8080     1.8710 ha         1 BS4       0.117500
     29 HAL         -2.1160    -0.6830    -2.1540 ha         1 BS4       0.136000
     30 HAM         -2.0490    -0.0360     2.1410 ha         1 BS4       0.136000
     31 HNAN         1.1270    -1.4820    -0.9280 hn         1 BS4       0.343500
@<TRIPOS>BOND
     1     1    16 1   
     2     1    20 1   
     3     1    21 1   
     4     2    15 2   
     5     3    19 2   
     6     4    19 2   
     7     5     6 ar  
     8     5     7 ar  
     9     5    22 1   
    10     6     8 ar  
    11     6    23 1   
    12     7     9 ar  
    13     7    24 1   
    14     8    17 ar  
    15     8    25 1   
    16     9    17 ar  
    17     9    26 1   
    18    10    12 ar  
    19    10    16 ar  
    20    10    27 1   
    21    11    13 ar  
    22    11    16 ar  
    23    11    28 1   
    24    12    18 ar  
    25    12    29 1   
    26    13    18 ar  
    27    13    30 1   
    28    14    15 1   
    29    14    19 1   
    30    14    31 1   
    31    15    17 1   
    32    18    19 1   
@<TRIPOS>SUBSTRUCTURE
     1 BS4         1 TEMP              0 ****  ****    0 ROOT
