@<TRIPOS>MOLECULE
BS4
   31    32     1     0     0
SMALL
abcg2


@<TRIPOS>ATOM
      1 NAA         -4.5930     2.6790    -0.2580 nv         1 BS4      -1.095000
      2 OAB          0.7510     0.2090     1.5360 o          1 BS4      -0.562100
      3 OAC         -1.0400    -2.7200    -1.0450 o          1 BS4      -0.533500
      4 OAD         -0.8020    -2.3660     1.4310 o          1 BS4      -0.533500
      5 CAE          5.0930     1.2620    -0.7180 ca         1 BS4      -0.082000
      6 CAF          4.2920     1.9940     0.1500 ca         1 BS4      -0.121000
      7 CAG          4.6580     0.0290    -1.1870 ca         1 BS4      -0.121000
      8 CAH          3.0630     1.4970     0.5470 ca         1 BS4      -0.065000
      9 CAI          3.4230    -0.4670    -0.7990 ca         1 BS4      -0.065000
     10 CAJ         -3.2220     1.0290    -1.3350 ca         1 BS4      -0.222500
     11 CAK         -3.2860     1.1700     1.0770 ca         1 BS4      -0.222500
     12 CAL         -2.3540    -0.0350    -1.2490 ca         1 BS4       0.052000
     13 CAM         -2.4100     0.1100     1.1620 ca         1 BS4       0.052000
     14 NAN          0.6900    -1.1690    -0.2490 ns         1 BS4      -0.575300
     15 CAO          1.2870    -0.2160     0.5350 c          1 BS4       0.646700
     16 CAP         -3.7090     1.6570    -0.1730 ca         1 BS4       0.382000
     17 CAQ          2.6150     0.2670     0.0680 ca         1 BS4      -0.159600
     18 CAR         -1.9420    -0.4980     0.0010 ca         1 BS4      -0.377500
     19 SAS         -0.8260    -1.8320     0.0850 sy         1 BS4       1.195300
     20 HNAA        -4.7010     3.1550    -1.1380 hn         1 BS4       0.476500
     21 HNAB        -4.7530     3.2510     0.5540 hn         1 BS4       0.476500
     22 HAE          6.0550     1.6490    -1.0260 ha         1 BS4       0.117000
     23 HAF          4.6260     2.9550     0.5190 ha         1 BS4       0.119000
     24 HAG          5.2820    -0.5500    -1.8540 ha         1 BS4       0.119000
     25 HAH          2.4440     2.0690     1.2250 ha         1 BS4       0.125000
     26 HAI          3.1200    -1.4400    -1.1650 ha         1 BS4       0.125000
     27 HAJ         -3.5360     1.3850    -2.3080 ha         1 BS4       0.117500
     28 HAK         -3.6480     1.6370     1.9840 ha         1 BS4       0.117500
     29 HAL         -1.9980    -0.4980    -2.1600 ha         1 BS4       0.136000
     30 HAM         -2.0990    -0.2400     2.1360 ha         1 BS4       0.136000
     31 HNAN         1.0600    -1.4010    -1.1620 hn         1 BS4       0.343500
@<TRIPOS>BOND
     1     1    16 1   
     2     1    20 1   
     3     1    21 1   
     4     2    15 2   
     5     3    19 2   
     6     4    19 2   
     7     5     6 ar  
     8     5     7 ar  
     9     5    22 1   
    10     6     8 ar  
    11     6    23 1   
    12     7     9 ar  
    13     7    24 1   
    14     8    17 ar  
    15     8    25 1   
    16     9    17 ar  
    17     9    26 1   
    18    10    12 ar  
    19    10    16 ar  
    20    10    27 1   
    21    11    13 ar  
    22    11    16 ar  
    23    11    28 1   
    24    12    18 ar  
    25    12    29 1   
    26    13    18 ar  
    27    13    30 1   
    28    14    15 1   
    29    14    19 1   
    30    14    31 1   
    31    15    17 1   
    32    18    19 1   
@<TRIPOS>SUBSTRUCTURE
     1 BS4         1 TEMP              0 ****  ****    0 ROOT
