@<TRIPOS>MOLECULE
BS5
   67    71     1     0     0
SMALL
No Charge or Current Charge


@<TRIPOS>ATOM
      1 S           -0.9220     4.1450    -0.9280 s6         1 BS5       1.295900
      2 N1          -4.4370    -4.8760     0.6140 nb         1 BS5      -0.298000
      3 C2          -5.4990    -4.0770     0.3520 ca         1 BS5       0.188900
      4 N3          -5.5010    -2.7240     0.3080 nb         1 BS5      -0.214000
      5 C4          -4.3190    -2.1240     0.5520 ca         1 BS5       0.151500
      6 C5          -3.1820    -2.8410     0.8300 ca         1 BS5      -0.103600
      7 C6          -3.2760    -4.2490     0.8570 ca         1 BS5       0.453900
      8 N6          -2.2080    -5.0490     1.1190 nv         1 BS5      -1.065900
      9 N7          -2.0760    -2.0250     1.0440 nc         1 BS5      -0.554100
     10 C8          -2.6040    -0.7980     0.8810 cd         1 BS5       0.408700
     11 N9          -3.9770    -0.7980     0.5840 na         1 BS5      -0.290300
     12 C1          -4.8280     0.3660     0.3780 c5         1 BS5       0.316300
     13 N1B          8.9470    -1.7950    -0.1230 ns         1 BS5      -0.526900
     14 S1B          6.3950    -0.7090     1.5720 ss         1 BS5      -0.401000
     15 C10         -5.0950     1.2470     1.6400 c5         1 BS5       0.083300
     16 O2          -6.0790     0.7130     2.5490 oh         1 BS5      -0.691000
     17 C2B          5.5320    -1.6850     0.2570 c5         1 BS5       0.072300
     18 N2B          7.2570    -1.2510    -1.4340 ns         1 BS5      -0.512900
     19 C3          -5.6120     2.5320     0.9400 c5         1 BS5       0.112300
     20 O3          -6.9720     2.3480     0.5270 oh         1 BS5      -0.698000
     21 C3B          8.5420    -0.9740    -1.1190 c          1 BS5       0.615000
     22 O3B          9.2320    -0.1320    -1.6580 o          1 BS5      -0.576000
     23 C11         -4.6100     2.6290    -0.2630 c5         1 BS5       0.160300
     24 O4          -4.1940     1.2630    -0.5570 os         1 BS5      -0.447000
     25 C4B          6.6820    -2.3210    -0.6090 c5         1 BS5       0.095700
     26 C12         -3.3440     3.4760     0.0330 c3         1 BS5       0.188800
     27 N5          -2.4340     3.5120    -1.1280 n7         1 BS5      -0.879300
     28 C5B          7.8820    -2.6780     0.3610 c5         1 BS5       0.105700
     29 C6B          7.5410    -2.1460     1.7950 c5         1 BS5       0.037600
     30 C7B          4.4930    -0.8220    -0.5080 c3         1 BS5      -0.058400
     31 C8B          3.2770    -0.3870     0.3430 c3         1 BS5      -0.074400
     32 C9B          2.2430     0.4370    -0.4550 c3         1 BS5      -0.077400
     33 CAB          1.0260     0.8680     0.3990 c3         1 BS5      -0.156400
     34 CBB          0.0200     1.6770    -0.4220 c          1 BS5       0.622100
     35 NBB         -0.0370     2.9980    -0.1360 ns         1 BS5      -0.620300
     36 OCB         -0.7260     1.1670    -1.2410 o          1 BS5      -0.557100
     37 OP1         -0.3810     4.3040    -2.2750 o          1 BS5      -0.531000
     38 OP2         -1.0490     5.3010    -0.0430 o          1 BS5      -0.531000
     39 H2          -6.4470    -4.5730     0.1550 h5         1 BS5       0.050100
     40 HN6         -2.2620    -6.0230     0.8360 hn         1 BS5       0.505000
     41 HN6A        -1.2900    -4.6130     1.0890 hn         1 BS5       0.505000
     42 H8          -2.0600     0.1340     0.9780 h5         1 BS5       0.051800
     43 H1          -5.7770     0.0060    -0.0420 h2         1 BS5       0.129700
     44 H10         -4.1550     1.4520     2.1730 h1         1 BS5       0.045700
     45 HO2         -5.6520    -0.0190     3.0560 ho         1 BS5       0.517000
     46 H2B          4.9840    -2.4970     0.7540 h1         1 BS5       0.066700
     47 HN2B         6.7990    -0.7310    -2.1710 hn         1 BS5       0.334500
     48 H3          -5.5320     3.4060     1.6020 h1         1 BS5       0.057700
     49 HO3         -7.3640     1.7900     1.2450 ho         1 BS5       0.525000
     50 H4          -5.1050     3.0560    -1.1460 h1         1 BS5       0.117700
     51 H4B          6.3430    -3.1770    -1.2070 h1         1 BS5       0.058700
     52 H5          -3.6610     4.4940     0.3000 h1         1 BS5       0.050700
     53 H5'A        -2.8380     3.0490     0.9100 h1         1 BS5       0.050700
     54 HN5         -2.1560     2.5470    -1.3320 hn         1 BS5       0.519000
     55 H5B          8.1630    -3.7400     0.3460 h1         1 BS5       0.062700
     56 H6B          8.4340    -1.8540     2.3630 h1         1 BS5       0.077700
     57 H6BA         7.0190    -2.9210     2.3720 h1         1 BS5       0.077700
     58 H7B          4.9750     0.0780    -0.9110 hc         1 BS5       0.056700
     59 H7BA         4.1260    -1.3900    -1.3710 hc         1 BS5       0.056700
     60 H8B          2.7880    -1.2800     0.7520 hc         1 BS5       0.042700
     61 H8BA         3.6230     0.2070     1.1980 hc         1 BS5       0.042700
     62 H9B          2.7320     1.3300    -0.8660 hc         1 BS5       0.068200
     63 H9BA         1.8920    -0.1550    -1.3110 hc         1 BS5       0.068200
     64 HAB          0.5280    -0.0340     0.7710 hc         1 BS5       0.062700
     65 HABA         1.3890     1.4670     1.2440 hc         1 BS5       0.062700
     66 HNBB         0.5730     3.3980     0.5560 hn         1 BS5       0.345500
     67 HN1B         9.8910    -1.7180     0.2340 hn         1 BS5       0.345500
@<TRIPOS>BOND
     1     1    27 1   
     2     1    35 1   
     3     1    37 2   
     4     1    38 2   
     5     2     3 ar  
     6     2     7 ar  
     7     3     4 ar  
     8     3    39 1   
     9     4     5 ar  
    10     5     6 ar  
    11     5    11 1   
    12     6     7 ar  
    13     6     9 1   
    14     7     8 1   
    15     8    40 1   
    16     8    41 1   
    17     9    10 2   
    18    10    11 1   
    19    10    42 1   
    20    11    12 1   
    21    12    15 1   
    22    12    24 1   
    23    12    43 1   
    24    13    21 1   
    25    13    28 1   
    26    13    67 1   
    27    14    17 1   
    28    14    29 1   
    29    15    16 1   
    30    15    19 1   
    31    15    44 1   
    32    16    45 1   
    33    17    25 1   
    34    17    30 1   
    35    17    46 1   
    36    18    21 1   
    37    18    25 1   
    38    18    47 1   
    39    19    20 1   
    40    19    23 1   
    41    19    48 1   
    42    20    49 1   
    43    21    22 2   
    44    23    24 1   
    45    23    26 1   
    46    23    50 1   
    47    25    28 1   
    48    25    51 1   
    49    26    27 1   
    50    26    52 1   
    51    26    53 1   
    52    27    54 1   
    53    28    29 1   
    54    28    55 1   
    55    29    56 1   
    56    29    57 1   
    57    30    31 1   
    58    30    58 1   
    59    30    59 1   
    60    31    32 1   
    61    31    60 1   
    62    31    61 1   
    63    32    33 1   
    64    32    62 1   
    65    32    63 1   
    66    33    34 1   
    67    33    64 1   
    68    33    65 1   
    69    34    35 1   
    70    34    36 2   
    71    35    66 1   
@<TRIPOS>SUBSTRUCTURE
     1 BS5         1 TEMP              0 ****  ****    0 ROOT
