@<TRIPOS>MOLECULE
BS5
   67    71     1     0     0
SMALL
abcg2


@<TRIPOS>ATOM
      1 S           -1.8870     4.5460    -1.3060 s6         1 BS5       1.295900
      2 N1          -2.3710    -4.5020    -1.0690 nb         1 BS5      -0.298000
      3 C2          -3.6060    -4.0530    -0.8640 ca         1 BS5       0.188900
      4 N3          -3.9860    -2.8770    -0.3940 nb         1 BS5      -0.214000
      5 C4          -2.9440    -2.1000    -0.1150 ca         1 BS5       0.151500
      6 C5          -1.6080    -2.4260    -0.2750 ca         1 BS5      -0.103600
      7 C6          -1.3330    -3.7090    -0.7820 ca         1 BS5       0.453900
      8 N6          -0.0910    -4.1520    -0.9770 nv         1 BS5      -1.065900
      9 N7          -0.8020    -1.3840     0.1080 nc         1 BS5      -0.554100
     10 C8          -1.6270    -0.4590     0.4870 cd         1 BS5       0.408700
     11 N9          -2.9440    -0.8270     0.3880 na         1 BS5      -0.290300
     12 C1          -4.1050    -0.0370     0.6930 c5         1 BS5       0.316300
     13 N1B          7.2320    -3.3640     0.1740 ns         1 BS5      -0.526900
     14 S1B          6.1070    -0.3290     0.8920 ss         1 BS5      -0.401000
     15 C10         -4.0680     0.6150     2.0750 c5         1 BS5       0.083300
     16 O2          -4.5200    -0.2910     3.0330 oh         1 BS5      -0.691000
     17 C2B          4.5790    -1.3220     0.9640 c5         1 BS5       0.072300
     18 N2B          5.2370    -3.0780    -0.6730 ns         1 BS5      -0.512900
     19 C3          -4.9750     1.8290     1.8550 c5         1 BS5       0.112300
     20 O3          -6.3250     1.4510     1.8530 oh         1 BS5      -0.698000
     21 C3B          6.4980    -3.5090    -0.9560 c          1 BS5       0.615000
     22 O3B          6.8920    -3.9320    -2.0320 o          1 BS5      -0.576000
     23 C11         -4.5890     2.2320     0.4380 c5         1 BS5       0.160300
     24 O4          -4.2280     1.0190    -0.2280 os         1 BS5      -0.447000
     25 C4B          5.0400    -2.7660     0.7210 c5         1 BS5       0.095700
     26 C12         -3.4280     3.2130     0.4070 c3         1 BS5       0.188800
     27 N5          -3.0710     3.4730    -0.9820 n7         1 BS5      -0.879300
     28 C5B          6.4700    -2.9420     1.3180 c5         1 BS5       0.105700
     29 C6B          6.9360    -1.5970     1.8820 c5         1 BS5       0.037600
     30 C7B          3.5100    -0.8290     0.0080 c3         1 BS5      -0.058400
     31 C8B          2.9880     0.5620     0.3450 c3         1 BS5      -0.074400
     32 C9B          1.8440     0.9760    -0.5710 c3         1 BS5      -0.077400
     33 CAB          1.2820     2.3350    -0.1860 c3         1 BS5      -0.156400
     34 CBB          0.0360     2.7070    -0.9430 c          1 BS5       0.622100
     35 NBB         -0.4790     3.9390    -0.6150 ns         1 BS5      -0.620300
     36 OCB         -0.5180     1.9980    -1.7550 o          1 BS5      -0.557100
     37 OP1         -1.7250     4.5830    -2.7390 o          1 BS5      -0.531000
     38 OP2         -2.1440     5.7530    -0.5540 o          1 BS5      -0.531000
     39 H2          -4.4020    -4.7450    -1.1180 h5         1 BS5       0.050100
     40 HN6          0.0700    -5.0580    -1.3820 hn         1 BS5       0.505000
     41 HN6A         0.7020    -3.5620    -0.8010 hn         1 BS5       0.505000
     42 H8          -1.3340     0.5110     0.8580 h5         1 BS5       0.051800
     43 H1          -4.9600    -0.7160     0.6200 h2         1 BS5       0.129700
     44 H10         -3.0550     0.9680     2.3020 h1         1 BS5       0.045700
     45 HO2         -4.2280     0.0010     3.9020 ho         1 BS5       0.517000
     46 H2B          4.1980    -1.2660     1.9900 h1         1 BS5       0.066700
     47 HN2B         4.4720    -3.3400    -1.2720 hn         1 BS5       0.334500
     48 H3          -4.7740     2.6290     2.5790 h1         1 BS5       0.057700
     49 HO3         -6.4730     0.8720     2.6110 ho         1 BS5       0.525000
     50 H4          -5.4380     2.6760    -0.0880 h1         1 BS5       0.117700
     51 H4B          4.3220    -3.4510     1.1800 h1         1 BS5       0.058700
     52 H5          -3.7530     4.1440     0.8720 h1         1 BS5       0.050700
     53 H5'A        -2.5780     2.8340     0.9870 h1         1 BS5       0.050700
     54 HN5         -2.9920     2.6400    -1.5580 hn         1 BS5       0.519000
     55 H5B          6.4900    -3.6970     2.1070 h1         1 BS5       0.062700
     56 H6B          8.0180    -1.4820     1.8240 h1         1 BS5       0.077700
     57 H6BA         6.6370    -1.5010     2.9270 h1         1 BS5       0.077700
     58 H7B          3.8930    -0.8440    -1.0160 hc         1 BS5       0.056700
     59 H7BA         2.6730    -1.5370     0.0410 hc         1 BS5       0.056700
     60 H8B          2.6440     0.5750     1.3850 hc         1 BS5       0.042700
     61 H8BA         3.7990     1.2950     0.2820 hc         1 BS5       0.042700
     62 H9B          2.1930     1.0000    -1.6070 hc         1 BS5       0.068200
     63 H9BA         1.0590     0.2190    -0.5220 hc         1 BS5       0.068200
     64 HAB          1.0400     2.3580     0.8820 hc         1 BS5       0.062700
     65 HABA         2.0300     3.1220    -0.3310 hc         1 BS5       0.062700
     66 HNBB        -0.0420     4.5140     0.0960 hn         1 BS5       0.345500
     67 HN1B         8.1790    -3.6970     0.2400 hn         1 BS5       0.345500
@<TRIPOS>BOND
     1     1    27 1   
     2     1    35 1   
     3     1    37 2   
     4     1    38 2   
     5     2     3 ar  
     6     2     7 ar  
     7     3     4 ar  
     8     3    39 1   
     9     4     5 ar  
    10     5     6 ar  
    11     5    11 1   
    12     6     7 ar  
    13     6     9 1   
    14     7     8 1   
    15     8    40 1   
    16     8    41 1   
    17     9    10 2   
    18    10    11 1   
    19    10    42 1   
    20    11    12 1   
    21    12    15 1   
    22    12    24 1   
    23    12    43 1   
    24    13    21 1   
    25    13    28 1   
    26    13    67 1   
    27    14    17 1   
    28    14    29 1   
    29    15    16 1   
    30    15    19 1   
    31    15    44 1   
    32    16    45 1   
    33    17    25 1   
    34    17    30 1   
    35    17    46 1   
    36    18    21 1   
    37    18    25 1   
    38    18    47 1   
    39    19    20 1   
    40    19    23 1   
    41    19    48 1   
    42    20    49 1   
    43    21    22 2   
    44    23    24 1   
    45    23    26 1   
    46    23    50 1   
    47    25    28 1   
    48    25    51 1   
    49    26    27 1   
    50    26    52 1   
    51    26    53 1   
    52    27    54 1   
    53    28    29 1   
    54    28    55 1   
    55    29    56 1   
    56    29    57 1   
    57    30    31 1   
    58    30    58 1   
    59    30    59 1   
    60    31    32 1   
    61    31    60 1   
    62    31    61 1   
    63    32    33 1   
    64    32    62 1   
    65    32    63 1   
    66    33    34 1   
    67    33    64 1   
    68    33    65 1   
    69    34    35 1   
    70    34    36 2   
    71    35    66 1   
@<TRIPOS>SUBSTRUCTURE
     1 BS5         1 TEMP              0 ****  ****    0 ROOT
