@<TRIPOS>MOLECULE
BS7
   39    41     1     0     0
SMALL
bcc


@<TRIPOS>ATOM
      1 C10          3.0950    -1.2370     0.5450 c6         1 BS7       0.117100
      2 C20         -3.9250    -2.0400    -0.7980 ca         1 BS7       0.405200
      3 C21         -5.1350    -1.4230    -0.4220 ca         1 BS7      -0.242300
      4 C22         -5.0880    -0.1720     0.1240 ca         1 BS7      -0.086000
      5 C01         -2.4700     2.3070     1.0000 ca         1 BS7      -0.089000
      6 C02         -3.7100     1.7520     0.8630 ca         1 BS7      -0.144000
      7 C03         -3.8380     0.4650     0.2940 ca         1 BS7      -0.122300
      8 C04         -2.6870    -0.2460    -0.1260 ca         1 BS7       0.381600
      9 C05         -1.4110     0.3690     0.0290 ca         1 BS7       0.097800
     10 C06         -1.3110     1.6230     0.5770 ca         1 BS7      -0.197000
     11 O07         -0.3600    -0.3650    -0.4000 os         1 BS7      -0.291900
     12 C08          0.8880    -0.1720     0.1860 c6         1 BS7       0.316900
     13 C09          1.6920    -1.4540    -0.0130 c6         1 BS7       0.088100
     14 C11          3.7300     0.0090    -0.0730 c6         1 BS7       0.124100
     15 C12          2.7810     1.1860     0.1110 c6         1 BS7       0.155100
     16 O13          1.5140     0.8980    -0.4520 os         1 BS7      -0.402600
     17 C14          3.2930     2.4670    -0.5090 c3         1 BS7       0.149400
     18 O15          2.4540     3.5210    -0.1000 oh         1 BS7      -0.597800
     19 O16          3.9840    -0.1610    -1.4450 oh         1 BS7      -0.585800
     20 O17          3.9400    -2.3290     0.2830 oh         1 BS7      -0.605800
     21 O18          1.1160    -2.5370     0.6720 oh         1 BS7      -0.607800
     22 N19         -2.7500    -1.4850    -0.6600 nb         1 BS7      -0.642000
     23 H101         3.0090    -1.0620     1.6290 h1         1 BS7       0.047700
     24 H211        -6.0720    -1.9410    -0.5680 ha         1 BS7       0.141000
     25 H221        -5.9920     0.3390     0.4290 ha         1 BS7       0.138000
     26 H011        -2.3590     3.2920     1.4320 ha         1 BS7       0.134000
     27 H021        -4.5980     2.2830     1.1810 ha         1 BS7       0.135000
     28 H061        -0.3540     2.1180     0.6720 ha         1 BS7       0.161000
     29 H081         0.7720     0.0340     1.2650 h2         1 BS7       0.041700
     30 H091         1.7630    -1.6510    -1.0920 h1         1 BS7       0.079700
     31 H111         4.6540     0.2360     0.4790 h1         1 BS7       0.050700
     32 H121         2.6780     1.3500     1.1960 h1         1 BS7       0.048700
     33 H141         4.3280     2.6150    -0.1710 h1         1 BS7       0.041200
     34 H142         3.3200     2.3680    -1.5990 h1         1 BS7       0.041200
     35 H151         2.6970     4.3060    -0.5970 ho         1 BS7       0.409000
     36 H161         4.4950    -0.9700    -1.5540 ho         1 BS7       0.424000
     37 H171         3.4880    -3.1380     0.5480 ho         1 BS7       0.433000
     38 H181         0.3250    -2.8140     0.1990 ho         1 BS7       0.436000
     39 H201        -3.9460    -3.0340    -1.2310 h4         1 BS7       0.018100
@<TRIPOS>BOND
     1     1    13 1   
     2     1    14 1   
     3     1    20 1   
     4     1    23 1   
     5     2     3 ar  
     6     2    22 ar  
     7     2    39 1   
     8     3     4 ar  
     9     3    24 1   
    10     4     7 ar  
    11     4    25 1   
    12     5     6 ar  
    13     5    10 ar  
    14     5    26 1   
    15     6     7 ar  
    16     6    27 1   
    17     7     8 ar  
    18     8     9 ar  
    19     8    22 ar  
    20     9    10 ar  
    21     9    11 1   
    22    10    28 1   
    23    11    12 1   
    24    12    13 1   
    25    12    16 1   
    26    12    29 1   
    27    13    21 1   
    28    13    30 1   
    29    14    15 1   
    30    14    19 1   
    31    14    31 1   
    32    15    16 1   
    33    15    17 1   
    34    15    32 1   
    35    17    18 1   
    36    17    33 1   
    37    17    34 1   
    38    18    35 1   
    39    19    36 1   
    40    20    37 1   
    41    21    38 1   
@<TRIPOS>SUBSTRUCTURE
     1 BS7         1 TEMP              0 ****  ****    0 ROOT
