@<TRIPOS>MOLECULE
BS7
   39    41     1     0     0
SMALL
No Charge or Current Charge


@<TRIPOS>ATOM
      1 C10          3.3900    -1.1810     0.5630 c6         1 BS7       0.140300
      2 C20         -4.1680    -1.8520    -1.1130 ca         1 BS7       0.339900
      3 C21         -5.3000    -1.0630    -0.8680 ca         1 BS7      -0.159000
      4 C22         -5.1480     0.1490    -0.1810 ca         1 BS7      -0.068000
      5 C01         -2.4080     2.1270     1.3550 ca         1 BS7      -0.071000
      6 C02         -3.6840     1.7380     0.9290 ca         1 BS7      -0.126000
      7 C03         -3.8590     0.5270     0.2360 ca         1 BS7      -0.057000
      8 C04         -2.7510    -0.3200    -0.0470 ca         1 BS7       0.251000
      9 C05         -1.4570     0.0890     0.3870 ca         1 BS7       0.163100
     10 C06         -1.2990     1.3100     1.0890 ca         1 BS7      -0.179000
     11 O07         -0.3770    -0.7440     0.1170 os         1 BS7      -0.315100
     12 C08          0.9720    -0.3870     0.4700 c6         1 BS7       0.363300
     13 C09          1.9280    -1.5980     0.2130 c6         1 BS7       0.111300
     14 C11          3.8060     0.1090    -0.2100 c6         1 BS7       0.147300
     15 C12          2.7270     1.2180     0.0370 c6         1 BS7       0.178300
     16 O13          1.4030     0.7390    -0.3230 os         1 BS7      -0.449000
     17 C14          3.0210     2.5360    -0.7520 c3         1 BS7       0.172600
     18 O15          2.0680     3.5870    -0.4800 oh         1 BS7      -0.720000
     19 O16          3.9630    -0.2130    -1.6080 oh         1 BS7      -0.708000
     20 O17          4.2900    -2.2630     0.2610 oh         1 BS7      -0.668000
     21 O18          1.5480    -2.7840     0.9590 oh         1 BS7      -0.730000
     22 N19         -2.9250    -1.4960    -0.7160 nb         1 BS7      -0.642000
     23 H101         3.4310    -0.9580     1.6400 h1         1 BS7       0.047700
     24 H211        -6.2780    -1.3930    -1.2080 ha         1 BS7       0.123000
     25 H221        -6.0120     0.7790     0.0220 ha         1 BS7       0.120000
     26 H011        -2.2780     3.0650     1.8910 ha         1 BS7       0.116000
     27 H021        -4.5380     2.3790     1.1400 ha         1 BS7       0.117000
     28 H061        -0.3260     1.6470     1.4330 ha         1 BS7       0.143000
     29 H081         1.0090    -0.1270     1.5390 h2         1 BS7       0.041700
     30 H091         1.8840    -1.8130    -0.8660 h1         1 BS7       0.079700
     31 H111         4.7640     0.4620     0.1990 h1         1 BS7       0.050700
     32 H121         2.7250     1.4710     1.1080 h1         1 BS7       0.048700
     33 H141         4.0340     2.8710    -0.4890 h1         1 BS7       0.041200
     34 H142         3.0250     2.3020    -1.8250 h1         1 BS7       0.041200
     35 H151         2.2820     4.3340    -1.0880 ho         1 BS7       0.508000
     36 H161         4.3750    -1.1110    -1.6040 ho         1 BS7       0.523000
     37 H171         3.8290    -3.0710     0.5890 ho         1 BS7       0.472000
     38 H181         0.5970    -2.9590     0.7520 ho         1 BS7       0.535000
     39 H201        -4.2550    -2.7990    -1.6440 h4         1 BS7       0.018100
@<TRIPOS>BOND
     1     1    13 1   
     2     1    14 1   
     3     1    20 1   
     4     1    23 1   
     5     2     3 ar  
     6     2    22 ar  
     7     2    39 1   
     8     3     4 ar  
     9     3    24 1   
    10     4     7 ar  
    11     4    25 1   
    12     5     6 ar  
    13     5    10 ar  
    14     5    26 1   
    15     6     7 ar  
    16     6    27 1   
    17     7     8 ar  
    18     8     9 ar  
    19     8    22 ar  
    20     9    10 ar  
    21     9    11 1   
    22    10    28 1   
    23    11    12 1   
    24    12    13 1   
    25    12    16 1   
    26    12    29 1   
    27    13    21 1   
    28    13    30 1   
    29    14    15 1   
    30    14    19 1   
    31    14    31 1   
    32    15    16 1   
    33    15    17 1   
    34    15    32 1   
    35    17    18 1   
    36    17    33 1   
    37    17    34 1   
    38    18    35 1   
    39    19    36 1   
    40    20    37 1   
    41    21    38 1   
@<TRIPOS>SUBSTRUCTURE
     1 BS7         1 TEMP              0 ****  ****    0 ROOT
