@<TRIPOS>MOLECULE
BS8
   25    27     1     0     0
SMALL
No Charge or Current Charge


@<TRIPOS>ATOM
      1 C10          3.2170    -1.2210    -0.4770 ca         1 BS8       0.303900
      2 C13         -0.1610     2.3050    -0.1040 ca         1 BS8      -0.154000
      3 C02         -2.5740    -1.3930     0.3130 cc         1 BS8       0.663700
      4 C04         -1.1290     0.1820     0.1070 ca         1 BS8      -0.108200
      5 C05          0.0700     0.9150     0.0480 cp         1 BS8      -0.008000
      6 C06          1.4440     0.3370     0.1600 cp         1 BS8      -0.034000
      7 C07          2.3810     0.8850     1.0690 ca         1 BS8      -0.127000
      8 C08          3.6770     0.3470     1.1650 ca         1 BS8       0.322900
      9 C11          1.8980    -0.7450    -0.6360 ca         1 BS8       0.113000
     10 C14         -1.4850     2.8050    -0.1970 ca         1 BS8       0.328900
     11 C16         -2.3880     0.7080     0.0290 ca         1 BS8       0.511000
     12 F12          1.0960    -1.3080    -1.5710 f          1 BS8      -0.169000
     13 N03         -1.2210    -1.1580     0.3050 na         1 BS8      -0.344600
     14 N09          4.0990    -0.6930     0.4090 nb         1 BS8      -0.640000
     15 N15         -2.5960     2.0230    -0.1330 nb         1 BS8      -0.614000
     16 N17         -3.3270    -0.3120     0.1520 nd         1 BS8      -0.709700
     17 H1           3.5800    -2.0490    -1.0850 h4         1 BS8       0.038100
     18 H2           0.6750     2.9970    -0.1610 ha         1 BS8       0.125000
     19 H3           2.1050     1.7210     1.7070 ha         1 BS8       0.135000
     20 H4           4.3980     0.7610     1.8680 h4         1 BS8       0.029100
     21 H5          -1.6590     3.8730    -0.3240 h4         1 BS8       0.023100
     22 H6          -2.5020    -3.3950     0.2380 hn         1 BS8       0.492000
     23 H7          -4.0720    -2.6960     0.2410 hn         1 BS8       0.492000
     24 H8          -0.4840    -1.8360     0.4290 hn         1 BS8       0.360000
     25 N01         -3.0900    -2.6050     0.4760 nv         1 BS8      -1.029200
@<TRIPOS>BOND
     1     1     9 ar  
     2     1    14 ar  
     3     1    17 1   
     4     2     5 ar  
     5     2    10 ar  
     6     2    18 1   
     7     3    13 1   
     8     3    16 2   
     9     3    25 1   
    10     4     5 ar  
    11     4    11 ar  
    12     4    13 1   
    13     5     6 1   
    14     6     7 ar  
    15     6     9 ar  
    16     7     8 ar  
    17     7    19 1   
    18     8    14 ar  
    19     8    20 1   
    20     9    12 1   
    21    10    15 ar  
    22    10    21 1   
    23    11    15 ar  
    24    11    16 1   
    25    13    24 1   
    26    22    25 1   
    27    23    25 1   
@<TRIPOS>SUBSTRUCTURE
     1 BS8         1 TEMP              0 ****  ****    0 ROOT
