@<TRIPOS>MOLECULE
BS8
   25    27     1     0     0
SMALL
bcc


@<TRIPOS>ATOM
      1 C10          3.2370    -1.1470    -0.4780 ca         1 BS8       0.369200
      2 C13         -0.1350     2.2610    -0.0850 ca         1 BS8      -0.237300
      3 C02         -2.6320    -1.3960     0.2680 cc         1 BS8       0.663700
      4 C04         -1.0340     0.1050     0.1100 ca         1 BS8      -0.173500
      5 C05          0.1010     0.8880     0.0600 cp         1 BS8      -0.008000
      6 C06          1.4720     0.3630     0.1770 cp         1 BS8      -0.034000
      7 C07          2.3930     0.9190     1.0600 ca         1 BS8      -0.210300
      8 C08          3.6770     0.4040     1.1260 ca         1 BS8       0.388200
      9 C11          1.9390    -0.6860    -0.5990 ca         1 BS8       0.012600
     10 C14         -1.4320     2.7440    -0.1790 ca         1 BS8       0.394200
     11 C16         -2.3200     0.6900     0.0160 ca         1 BS8       0.576300
     12 F12          1.1290    -1.2600    -1.4960 f          1 BS8      -0.133900
     13 N03         -1.2770    -1.2340     0.2740 na         1 BS8      -0.294300
     14 N09          4.0940    -0.6100     0.3760 nb         1 BS8      -0.640000
     15 N15         -2.5260     1.9850    -0.1320 nb         1 BS8      -0.614000
     16 N17         -3.2880    -0.2680     0.1100 nd         1 BS8      -0.709700
     17 H1           3.5820    -1.9680    -1.0970 h4         1 BS8       0.038100
     18 H2           0.6950     2.9510    -0.1420 ha         1 BS8       0.143000
     19 H3           2.1070     1.7410     1.7020 ha         1 BS8       0.153000
     20 H4           4.3960     0.8270     1.8170 h4         1 BS8       0.029100
     21 H5          -1.5910     3.8090    -0.3010 h4         1 BS8       0.023100
     22 H6          -2.6560    -3.4310     0.2970 hn         1 BS8       0.436800
     23 H7          -4.1800    -2.6750     0.2570 hn         1 BS8       0.436800
     24 H8          -0.6020    -1.9660     0.4280 hn         1 BS8       0.309700
     25 N01         -3.1970    -2.5980     0.4580 nv         1 BS8      -0.918800
@<TRIPOS>BOND
     1     1     9 ar  
     2     1    14 ar  
     3     1    17 1   
     4     2     5 ar  
     5     2    10 ar  
     6     2    18 1   
     7     3    13 1   
     8     3    16 2   
     9     3    25 1   
    10     4     5 ar  
    11     4    11 ar  
    12     4    13 1   
    13     5     6 1   
    14     6     7 ar  
    15     6     9 ar  
    16     7     8 ar  
    17     7    19 1   
    18     8    14 ar  
    19     8    20 1   
    20     9    12 1   
    21    10    15 ar  
    22    10    21 1   
    23    11    15 ar  
    24    11    16 1   
    25    13    24 1   
    26    22    25 1   
    27    23    25 1   
@<TRIPOS>SUBSTRUCTURE
     1 BS8         1 TEMP              0 ****  ****    0 ROOT
