@<TRIPOS>MOLECULE
BSA
   25    25     1     0     0
SMALL
abcg2


@<TRIPOS>ATOM
      1 C1          -2.6940    -0.0590    -0.1170 ca         1 BSA      -0.135600
      2 C2          -3.7180    -0.9110    -0.5280 ca         1 BSA      -0.075500
      3 C3          -5.0400    -0.4980    -0.4640 ca         1 BSA      -0.126500
      4 C4          -5.3500     0.7790    -0.0120 ca         1 BSA      -0.106000
      5 C5          -4.3330     1.6400     0.3770 ca         1 BSA      -0.126500
      6 C6          -3.0100     1.2220     0.3290 ca         1 BSA      -0.075500
      7 C7           1.7730     0.5270    -0.2980 c3         1 BSA      -0.380400
      8 S8           3.5260     0.1120    -0.3370 s6         1 BSA       1.325600
      9 N9          -0.4180    -0.0360     0.6740 ns         1 BSA      -0.493900
     10 C10          0.9920    -0.3520     0.6700 c3         1 BSA       0.139000
     11 O11          4.1330     1.0780    -1.2720 o          1 BSA      -0.696200
     12 O12          3.5880    -1.2830    -0.8170 o          1 BSA      -0.696200
     13 C13         -1.2840    -0.5490    -0.2150 c          1 BSA       0.601700
     14 O14         -0.9600    -1.3820    -1.0510 o          1 BSA      -0.598100
     15 O15          4.0040     0.2640     1.0520 o          1 BSA      -0.696200
     16 H2          -3.4780    -1.9020    -0.8880 ha         1 BSA       0.125500
     17 H3          -5.8290    -1.1730    -0.7690 ha         1 BSA       0.107000
     18 H4          -6.3810     1.1030     0.0320 ha         1 BSA       0.103000
     19 H5          -4.5680     2.6400     0.7150 ha         1 BSA       0.107000
     20 H6          -2.2320     1.9170     0.6170 ha         1 BSA       0.125500
     21 H71          1.6860     1.5790    -0.0200 h1         1 BSA       0.072700
     22 H72          1.3940     0.4120    -1.3160 h1         1 BSA       0.072700
     23 HN9         -0.7490     0.6030     1.3780 hn         1 BSA       0.299500
     24 H101         1.1240    -1.4030     0.4120 h1         1 BSA       0.064200
     25 H102         1.3630    -0.2130     1.6830 h1         1 BSA       0.064200
@<TRIPOS>BOND
     1     1     2 ar  
     2     1     6 ar  
     3     1    13 1   
     4     2     3 ar  
     5     2    16 1   
     6     3     4 ar  
     7     3    17 1   
     8     4     5 ar  
     9     4    18 1   
    10     5     6 ar  
    11     5    19 1   
    12     6    20 1   
    13     7     8 1   
    14     7    10 1   
    15     7    21 1   
    16     7    22 1   
    17     8    11 1   
    18     8    12 1   
    19     8    15 1   
    20     9    10 1   
    21     9    13 1   
    22     9    23 1   
    23    10    24 1   
    24    10    25 1   
    25    13    14 2   
@<TRIPOS>SUBSTRUCTURE
     1 BSA         1 TEMP              0 ****  ****    0 ROOT
