@<TRIPOS>MOLECULE
BSA
   25    25     1     0     0
SMALL
No Charge or Current Charge


@<TRIPOS>ATOM
      1 C1          -2.7160    -0.1060    -0.0490 ca         1 BSA      -0.135600
      2 C2          -3.7140    -0.7960    -0.7770 ca         1 BSA      -0.075500
      3 C3          -5.0470    -0.3500    -0.7730 ca         1 BSA      -0.126500
      4 C4          -5.4050     0.7920    -0.0430 ca         1 BSA      -0.106000
      5 C5          -4.4290     1.4890     0.6850 ca         1 BSA      -0.126500
      6 C6          -3.0940     1.0470     0.6850 ca         1 BSA      -0.075500
      7 C7           1.8100     0.4060    -0.4610 c3         1 BSA      -0.380400
      8 S8           3.5800     0.0840    -0.3890 s6         1 BSA       1.325600
      9 N9          -0.3620     0.0960     0.6590 ns         1 BSA      -0.493900
     10 C10          1.0660    -0.2100     0.7310 c3         1 BSA       0.139000
     11 O11          4.0950     0.7410    -1.5990 o          1 BSA      -0.696200
     12 O12          3.6720    -1.3830    -0.4050 o          1 BSA      -0.696200
     13 C13         -1.2870    -0.6170    -0.0760 c          1 BSA       0.601700
     14 O14         -0.9650    -1.6130    -0.7110 o          1 BSA      -0.598100
     15 O15          3.9990     0.7110     0.8720 o          1 BSA      -0.696200
     16 H2          -3.4590    -1.6850    -1.3510 ha         1 BSA       0.125500
     17 H3          -5.8020    -0.8920    -1.3380 ha         1 BSA       0.107000
     18 H4          -6.4370     1.1370    -0.0400 ha         1 BSA       0.103000
     19 H5          -4.7060     2.3750     1.2520 ha         1 BSA       0.107000
     20 H6          -2.3670     1.6140     1.2600 ha         1 BSA       0.125500
     21 H71          1.6900     1.4940    -0.4740 h1         1 BSA       0.072700
     22 H72          1.4520    -0.0180    -1.4040 h1         1 BSA       0.072700
     23 HN9         -0.7010     0.9050     1.1610 hn         1 BSA       0.299500
     24 H101         1.2040    -1.3000     0.7460 h1         1 BSA       0.064200
     25 H102         1.4610     0.1940     1.6730 h1         1 BSA       0.064200
@<TRIPOS>BOND
     1     1     2 ar  
     2     1     6 ar  
     3     1    13 1   
     4     2     3 ar  
     5     2    16 1   
     6     3     4 ar  
     7     3    17 1   
     8     4     5 ar  
     9     4    18 1   
    10     5     6 ar  
    11     5    19 1   
    12     6    20 1   
    13     7     8 1   
    14     7    10 1   
    15     7    21 1   
    16     7    22 1   
    17     8    11 1   
    18     8    12 1   
    19     8    15 1   
    20     9    10 1   
    21     9    13 1   
    22     9    23 1   
    23    10    24 1   
    24    10    25 1   
    25    13    14 2   
@<TRIPOS>SUBSTRUCTURE
     1 BSA         1 TEMP              0 ****  ****    0 ROOT
