@<TRIPOS>MOLECULE
BSB
   34    35     1     0     0
SMALL
bcc


@<TRIPOS>ATOM
      1 C01         -1.8080     0.3680     1.3820 ca         1 BSB      -0.115000
      2 C02         -1.3010     0.3770     2.6710 ca         1 BSB      -0.037500
      3 C03          0.0600     0.1920     2.8610 ca         1 BSB      -0.250500
      4 C04          0.9200     0.0070     1.7870 ca         1 BSB      -0.037500
      5 C05          0.4000    -0.0120     0.5050 ca         1 BSB      -0.115000
      6 C06         -0.9670     0.1590     0.2940 ca         1 BSB      -0.098600
      7 C07         -1.5690     0.1710    -1.0790 c          1 BSB       0.675700
      8 O08         -2.5590     0.8480    -1.3170 o          1 BSB      -0.592100
      9 N09         -0.9540    -0.6050    -1.9840 ns         1 BSB      -0.566900
     10 C10         -1.3450    -0.7040    -3.3730 c3         1 BSB       0.144300
     11 S11          0.7320     0.1950     4.5020 sy         1 BSB       1.269200
     12 NP2          0.9240    -1.4230     4.7630 n8         1 BSB      -0.897700
     13 O13         -0.2590     0.7950     5.3840 o          1 BSB      -0.611800
     14 O14          2.0730     0.7570     4.4720 o          1 BSB      -0.611800
     15 C15         -0.2160    -0.3340    -4.3010 ca         1 BSB      -0.116300
     16 C16          0.2600    -1.2450    -5.2360 ca         1 BSB      -0.114500
     17 C17          1.2950    -0.8990    -6.0990 ca         1 BSB      -0.130000
     18 C18          1.8650     0.3630    -6.0290 ca         1 BSB      -0.121000
     19 C19          1.3960     1.2790    -5.0940 ca         1 BSB      -0.130000
     20 C20          0.3640     0.9320    -4.2360 ca         1 BSB      -0.114500
     21 H01C        -2.8680     0.5150     1.2280 ha         1 BSB       0.149000
     22 H02C        -1.9670     0.5270     3.5090 ha         1 BSB       0.158500
     23 H04C         1.9840    -0.1150     1.9360 ha         1 BSB       0.158500
     24 H05C         1.0820    -0.1350    -0.3270 ha         1 BSB       0.149000
     25 H09N        -0.2030    -1.2060    -1.6830 hn         1 BSB       0.318500
     26 H101        -1.6830    -1.7210    -3.5850 h1         1 BSB       0.065700
     27 H102        -2.1970    -0.0440    -3.5300 h1         1 BSB       0.065700
     28 HNP1         1.6230    -1.6070     5.4760 hn         1 BSB       0.420800
     29 HNP2         0.0530    -1.8930     4.9900 hn         1 BSB       0.420800
     30 H16C        -0.1770    -2.2340    -5.2910 ha         1 BSB       0.133500
     31 H17C         1.6570    -1.6200    -6.8210 ha         1 BSB       0.133000
     32 H18C         2.6720     0.6330    -6.6980 ha         1 BSB       0.132000
     33 H19C         1.8350     2.2670    -5.0360 ha         1 BSB       0.133000
     34 H20C         0.0040     1.6560    -3.5130 ha         1 BSB       0.133500
@<TRIPOS>BOND
     1     1     2 ar  
     2     1     6 ar  
     3     1    21 1   
     4     2     3 ar  
     5     2    22 1   
     6     3     4 ar  
     7     3    11 1   
     8     4     5 ar  
     9     4    23 1   
    10     5     6 ar  
    11     5    24 1   
    12     6     7 1   
    13     7     8 2   
    14     7     9 1   
    15     9    10 1   
    16     9    25 1   
    17    10    15 1   
    18    10    26 1   
    19    10    27 1   
    20    11    12 1   
    21    11    13 2   
    22    11    14 2   
    23    12    28 1   
    24    12    29 1   
    25    15    16 ar  
    26    15    20 ar  
    27    16    17 ar  
    28    16    30 1   
    29    17    18 ar  
    30    17    31 1   
    31    18    19 ar  
    32    18    32 1   
    33    19    20 ar  
    34    19    33 1   
    35    20    34 1   
@<TRIPOS>SUBSTRUCTURE
     1 BSB         1 TEMP              0 ****  ****    0 ROOT
