@<TRIPOS>MOLECULE
BSB
   34    35     1     0     0
SMALL
No Charge or Current Charge


@<TRIPOS>ATOM
      1 C01         -1.9590    -0.0090     1.5130 ca         1 BSB      -0.097000
      2 C02         -1.3980     0.0000     2.8020 ca         1 BSB      -0.019500
      3 C03          0.0010     0.0160     2.9630 ca         1 BSB      -0.250500
      4 C04          0.8300     0.0180     1.8250 ca         1 BSB      -0.019500
      5 C05          0.2660     0.0080     0.5360 ca         1 BSB      -0.097000
      6 C06         -1.1400    -0.0050     0.3610 ca         1 BSB      -0.098600
      7 C07         -1.7860    -0.0150    -1.0130 c          1 BSB       0.608700
      8 O08         -3.0010    -0.0280    -1.1660 o          1 BSB      -0.592100
      9 N09         -0.9390    -0.0100    -2.0990 ns         1 BSB      -0.499900
     10 C10         -1.3810    -0.0180    -3.4900 c3         1 BSB       0.144300
     11 S11          0.7230     0.0280     4.6100 sy         1 BSB       1.127600
     12 NP2          0.8890    -1.5580     4.9540 n8         1 BSB      -1.008100
     13 O13         -0.2430     0.4940     5.6020 o          1 BSB      -0.541000
     14 O14          2.1000     0.5150     4.5750 o          1 BSB      -0.541000
     15 C15         -0.1920    -0.0080    -4.4370 ca         1 BSB      -0.116300
     16 C16          0.3790    -1.2200    -4.8740 ca         1 BSB      -0.096500
     17 C17          1.4820    -1.2100    -5.7450 ca         1 BSB      -0.112000
     18 C18          2.0220     0.0110    -6.1830 ca         1 BSB      -0.103000
     19 C19          1.4580     1.2220    -5.7490 ca         1 BSB      -0.112000
     20 C20          0.3540     1.2130    -4.8780 ca         1 BSB      -0.096500
     21 H01C        -3.0430    -0.0210     1.4150 ha         1 BSB       0.131000
     22 H02C        -2.0550    -0.0060     3.6700 ha         1 BSB       0.140500
     23 H04C         1.9140     0.0260     1.9320 ha         1 BSB       0.140500
     24 H05C         0.9420     0.0110    -0.3150 ha         1 BSB       0.131000
     25 H09N         0.0550     0.0010    -1.9150 hn         1 BSB       0.318500
     26 H101        -1.9920    -0.9140    -3.6680 h1         1 BSB       0.065700
     27 H102        -2.0110     0.8630    -3.6720 h1         1 BSB       0.065700
     28 HNP1         1.8690    -1.5840     5.2240 hn         1 BSB       0.476000
     29 HNP2         0.4190    -1.5990     5.8560 hn         1 BSB       0.476000
     30 H16C        -0.0320    -2.1700    -4.5370 ha         1 BSB       0.115500
     31 H17C         1.9190    -2.1490    -6.0790 ha         1 BSB       0.115000
     32 H18C         2.8760     0.0180    -6.8570 ha         1 BSB       0.114000
     33 H19C         1.8760     2.1680    -6.0870 ha         1 BSB       0.115000
     34 H20C        -0.0750     2.1560    -4.5450 ha         1 BSB       0.115500
@<TRIPOS>BOND
     1     1     2 ar  
     2     1     6 ar  
     3     1    21 1   
     4     2     3 ar  
     5     2    22 1   
     6     3     4 ar  
     7     3    11 1   
     8     4     5 ar  
     9     4    23 1   
    10     5     6 ar  
    11     5    24 1   
    12     6     7 1   
    13     7     8 2   
    14     7     9 1   
    15     9    10 1   
    16     9    25 1   
    17    10    15 1   
    18    10    26 1   
    19    10    27 1   
    20    11    12 1   
    21    11    13 2   
    22    11    14 2   
    23    12    28 1   
    24    12    29 1   
    25    15    16 ar  
    26    15    20 ar  
    27    16    17 ar  
    28    16    30 1   
    29    17    18 ar  
    30    17    31 1   
    31    18    19 ar  
    32    18    32 1   
    33    19    20 ar  
    34    19    33 1   
    35    20    34 1   
@<TRIPOS>SUBSTRUCTURE
     1 BSB         1 TEMP              0 ****  ****    0 ROOT
