@<TRIPOS>MOLECULE
BSC
   31    30     1     0     0
SMALL
No Charge or Current Charge


@<TRIPOS>ATOM
      1 CAB          6.3370     0.1090    -0.1020 c3         1 BSC      -0.089100
      2 CAC          4.9610     0.6650    -0.5180 c3         1 BSC      -0.071400
      3 CAD          3.7810    -0.1600     0.0390 c3         1 BSC      -0.051400
      4 CAE          2.4080     0.4100    -0.3860 c3         1 BSC      -0.213400
      5 SAF          1.0140    -0.5410     0.2660 s6         1 BSC       0.804500
      6 NAA          1.0010    -1.9610    -0.3460 n2         1 BSC      -0.797900
      7 OAG          1.0170    -0.4200     1.7250 o          1 BSC      -0.530000
      8 CAH         -0.3650     0.4280    -0.3820 c3         1 BSC      -0.254400
      9 CB          -1.7490    -0.1190     0.0540 c3         1 BSC      -0.032400
     10 CA          -2.9510     0.6770    -0.5220 c3         1 BSC       0.019500
     11 C           -4.3000    -0.1190    -0.2790 c          1 BSC       0.693000
     12 O           -4.7890    -0.1080     0.8440 o          1 BSC      -0.727500
     13 OXT         -4.8600    -0.6190    -1.2460 o          1 BSC      -0.727500
     14 N           -2.9300     2.1090    -0.0410 n8         1 BSC      -1.006200
     15 HAB1         6.4400     0.1050     0.9900 hc         1 BSC       0.029700
     16 HAB2         6.4670    -0.9170    -0.4670 hc         1 BSC       0.029700
     17 HAB3         7.1400     0.7270    -0.5200 hc         1 BSC       0.029700
     18 HAC1         4.8750     1.7020    -0.1690 hc         1 BSC       0.036200
     19 HAC2         4.9020     0.6890    -1.6130 hc         1 BSC       0.036200
     20 HAD1         3.8710    -1.1970    -0.3100 hc         1 BSC       0.061700
     21 HAD2         3.8440    -0.1840     1.1350 hc         1 BSC       0.061700
     22 HAE1         2.2880     1.4350    -0.0190 h1         1 BSC       0.090200
     23 HAE2         2.3100     0.4030    -1.4780 h1         1 BSC       0.090200
     24 HAA1         0.9940    -2.6150     0.4470 hn         1 BSC       0.427400
     25 HAH1        -0.2260     1.4530    -0.0200 h1         1 BSC       0.088200
     26 HAH2        -0.2750     0.4170    -1.4740 h1         1 BSC       0.088200
     27 HB1         -1.8360    -1.1620    -0.2780 hc         1 BSC       0.054200
     28 HB2         -1.8140    -0.1340     1.1490 hc         1 BSC       0.054200
     29 HA          -2.8140     0.7150    -1.6120 h1         1 BSC       0.036700
     30 HN1         -3.7030     2.6210    -0.4840 hn         1 BSC       0.386500
     31 HN2         -3.1870     2.1180     0.9530 hn         1 BSC       0.386500
@<TRIPOS>BOND
     1     1     2 1   
     2     1    15 1   
     3     1    16 1   
     4     1    17 1   
     5     2     3 1   
     6     2    18 1   
     7     2    19 1   
     8     3     4 1   
     9     3    20 1   
    10     3    21 1   
    11     4     5 1   
    12     4    22 1   
    13     4    23 1   
    14     5     6 2   
    15     5     7 2   
    16     5     8 1   
    17     6    24 1   
    18     8     9 1   
    19     8    25 1   
    20     8    26 1   
    21     9    10 1   
    22     9    27 1   
    23     9    28 1   
    24    10    11 1   
    25    10    14 1   
    26    10    29 1   
    27    11    12 1   
    28    11    13 1   
    29    14    30 1   
    30    14    31 1   
@<TRIPOS>SUBSTRUCTURE
     1 BSC         1 TEMP              0 ****  ****    0 ROOT
