@<TRIPOS>MOLECULE
BSC
   31    30     1     0     0
SMALL
bcc


@<TRIPOS>ATOM
      1 CAB          6.2650     0.0960    -0.0100 c3         1 BSC      -0.089100
      2 CAC          4.9360     0.6110    -0.5440 c3         1 BSC      -0.071400
      3 CAD          3.7470    -0.1310     0.0560 c3         1 BSC      -0.051400
      4 CAE          2.4340     0.4190    -0.4790 c3         1 BSC      -0.102600
      5 SAF          1.0280    -0.4410     0.2130 s6         1 BSC       0.653700
      6 NAA          1.1140    -1.8450    -0.4110 n2         1 BSC      -0.797900
      7 OAG          1.0280    -0.2720     1.6830 o          1 BSC      -0.600800
      8 CAH         -0.3780     0.5040    -0.4010 c3         1 BSC      -0.143600
      9 CB          -1.6860    -0.1460     0.0140 c3         1 BSC      -0.032400
     10 CA          -2.8960     0.6660    -0.4610 c3         1 BSC       0.019500
     11 C           -4.1840    -0.1540    -0.1870 c          1 BSC       0.903600
     12 O           -4.9560     0.2670     0.6960 o          1 BSC      -0.832800
     13 OXT         -4.3250    -1.1900    -0.8690 o          1 BSC      -0.832800
     14 N           -2.8620     1.9930     0.1310 n8         1 BSC      -0.895800
     15 HAB1         6.3310     0.2210     1.0720 hc         1 BSC       0.029700
     16 HAB2         6.3930    -0.9660    -0.2280 hc         1 BSC       0.029700
     17 HAB3         7.1040     0.6300    -0.4570 hc         1 BSC       0.029700
     18 HAC1         4.8430     1.6800    -0.3310 hc         1 BSC       0.036200
     19 HAC2         4.9130     0.5130    -1.6330 hc         1 BSC       0.036200
     20 HAD1         3.8210    -1.1960    -0.1750 hc         1 BSC       0.061700
     21 HAD2         3.7690    -0.0360     1.1440 hc         1 BSC       0.061700
     22 HAE1         2.3050     1.4700    -0.2130 h1         1 BSC       0.090200
     23 HAE2         2.3630     0.3270    -1.5630 h1         1 BSC       0.090200
     24 HAA1         0.3570    -2.4380    -0.0840 hn         1 BSC       0.427400
     25 HAH1        -0.2920     1.5180    -0.0100 h1         1 BSC       0.088200
     26 HAH2        -0.2800     0.5360    -1.4880 h1         1 BSC       0.088200
     27 HB1         -1.7530    -1.1510    -0.4050 hc         1 BSC       0.054200
     28 HB2         -1.7260    -0.2430     1.1030 hc         1 BSC       0.054200
     29 HA          -2.8060     0.7830    -1.5470 h1         1 BSC       0.036700
     30 HN1         -3.5250     2.5860    -0.3530 hn         1 BSC       0.331300
     31 HN2         -3.2300     1.9180     1.0730 hn         1 BSC       0.331300
@<TRIPOS>BOND
     1     1     2 1   
     2     1    15 1   
     3     1    16 1   
     4     1    17 1   
     5     2     3 1   
     6     2    18 1   
     7     2    19 1   
     8     3     4 1   
     9     3    20 1   
    10     3    21 1   
    11     4     5 1   
    12     4    22 1   
    13     4    23 1   
    14     5     6 2   
    15     5     7 2   
    16     5     8 1   
    17     6    24 1   
    18     8     9 1   
    19     8    25 1   
    20     8    26 1   
    21     9    10 1   
    22     9    27 1   
    23     9    28 1   
    24    10    11 1   
    25    10    14 1   
    26    10    29 1   
    27    11    12 1   
    28    11    13 1   
    29    14    30 1   
    30    14    31 1   
@<TRIPOS>SUBSTRUCTURE
     1 BSC         1 TEMP              0 ****  ****    0 ROOT
