@<TRIPOS>MOLECULE
BSD
   89    92     1     0     0
SMALL
No Charge or Current Charge


@<TRIPOS>ATOM
      1 C11          3.3740    -4.3720    34.4770 ca         1 BSD      -0.093000
      2 C12          3.2770    -4.2270    35.8720 ca         1 BSD      -0.109500
      3 C13          2.3840    -5.0280    36.6030 ca         1 BSD      -0.105000
      4 C14          1.5880    -5.9750    35.9380 ca         1 BSD      -0.109500
      5 C15          1.6850    -6.1220    34.5430 ca         1 BSD      -0.093000
      6 C16          2.5820    -5.3230    33.8010 ca         1 BSD      -0.102300
      7 C17          2.6820    -5.4590    32.2830 c3         1 BSD       0.163000
      8 C18          3.0130    -6.9010    31.8420 c3         1 BSD      -0.104100
      9 N21          1.4430    -4.9850    31.6740 ns         1 BSD      -0.500900
     10 C21          1.2950    -4.6030    30.3590 c          1 BSD       0.615700
     11 O21          2.2360    -4.6190    29.5780 o          1 BSD      -0.588100
     12 C23         -0.0900    -4.1550    29.9420 ca         1 BSD      -0.140600
     13 C24         -0.3580    -3.9350    28.5730 ca         1 BSD      -0.029000
     14 C25         -1.6370    -3.5550    28.1360 ca         1 BSD       0.261000
     15 C26         -2.6690    -3.3970    29.0750 ca         1 BSD      -0.061000
     16 C27         -2.4300    -3.5810    30.4530 ca         1 BSD      -0.147600
     17 C28         -1.1360    -3.9630    30.8780 ca         1 BSD      -0.073000
     18 N22         -1.8830    -3.3650    26.7670 nh         1 BSD      -0.786300
     19 C29         -2.7740    -4.2930    26.0480 c3         1 BSD       0.202100
     20 S2          -1.7610    -1.7660    26.1290 s6         1 BSD       1.207100
     21 O23         -1.9270    -1.8690    24.6760 o          1 BSD      -0.533500
     22 O24         -2.6690    -0.9280    26.9190 o          1 BSD      -0.533500
     23 C20         -0.0820    -1.2760    26.4760 c3         1 BSD      -0.349100
     24 C22         -3.5700    -3.4130    31.4310 c          1 BSD       0.618700
     25 O22         -4.7380    -3.5030    31.0800 o          1 BSD      -0.588100
     26 N3          -3.2090    -3.2090    32.7480 ns         1 BSD      -0.503900
     27 C31         -4.1260    -3.3170    33.8970 c3         1 BSD       0.117700
     28 C32         -3.8260    -4.6310    34.6730 c3         1 BSD      -0.042100
     29 C33         -3.5510    -5.8270    33.7630 ca         1 BSD      -0.078300
     30 C34         -4.5930    -6.3980    33.0060 ca         1 BSD      -0.113000
     31 C35         -4.3320    -7.4710    32.1360 ca         1 BSD      -0.106500
     32 C36         -3.0270    -7.9800    32.0190 ca         1 BSD      -0.108000
     33 C37         -1.9840    -7.4170    32.7730 ca         1 BSD      -0.106500
     34 C38         -2.2460    -6.3460    33.6450 ca         1 BSD      -0.113000
     35 C39         -4.0820    -2.0500    34.8110 c3         1 BSD       0.159300
     36 O3          -4.9530    -2.2140    35.9510 oh         1 BSD      -0.654000
     37 C30         -4.3850    -0.7010    34.0660 c3         1 BSD       0.161800
     38 N4          -5.6070    -0.6960    33.2150 n7         1 BSD      -0.907400
     39 C41         -6.9110    -0.8820    33.8830 c3         1 BSD       0.235100
     40 C42         -8.0430    -0.8490    32.8610 ca         1 BSD      -0.051300
     41 C43         -8.0760    -1.7970    31.8180 ca         1 BSD      -0.167000
     42 C44         -9.1190    -1.7800    30.8670 ca         1 BSD       0.131100
     43 C45        -10.1330    -0.8130    30.9700 ca         1 BSD      -0.142000
     44 C46        -10.1080     0.1330    32.0080 ca         1 BSD      -0.082000
     45 C47         -9.0660     0.1160    32.9500 ca         1 BSD      -0.146000
     46 O4          -9.1870    -2.6830    29.8240 os         1 BSD      -0.345100
     47 C48         -8.1720    -3.6810    29.6090 c3         1 BSD       0.148900
     48 H11          4.0650    -3.7410    33.9220 ha         1 BSD       0.109500
     49 H12          3.8920    -3.4910    36.3850 ha         1 BSD       0.113000
     50 H13          2.3090    -4.9140    37.6820 ha         1 BSD       0.112000
     51 H14          0.8940    -6.5940    36.5020 ha         1 BSD       0.113000
     52 H15          1.0590    -6.8560    34.0430 ha         1 BSD       0.109500
     53 H17          3.4970    -4.8110    31.9320 h1         1 BSD       0.074700
     54 H181         3.1810    -6.9480    30.7600 hc         1 BSD       0.044367
     55 H182         3.9240    -7.2520    32.3400 hc         1 BSD       0.044367
     56 H183         2.1970    -7.5900    32.0890 hc         1 BSD       0.044367
     57 H21          0.6200    -4.9500    32.2570 hn         1 BSD       0.312500
     58 H24          0.4230    -4.0770    27.8320 ha         1 BSD       0.142000
     59 H28         -0.9540    -4.1350    31.9340 ha         1 BSD       0.125000
     60 H26         -3.6580    -3.1150    28.7260 ha         1 BSD       0.138000
     61 H291        -3.7780    -3.8640    25.9340 h1         1 BSD       0.052367
     62 H292        -2.3700    -4.5220    25.0530 h1         1 BSD       0.052367
     63 H293        -2.8640    -5.2410    26.5950 h1         1 BSD       0.052367
     64 H201         0.5760    -2.0120    26.0040 h1         1 BSD       0.105033
     65 H202         0.0620    -0.2800    26.0470 h1         1 BSD       0.105033
     66 H203         0.0430    -1.2620    27.5620 h1         1 BSD       0.105033
     67 H3          -2.2220    -3.1110    32.9360 hn         1 BSD       0.308500
     68 H31         -5.1510    -3.3960    33.5100 h1         1 BSD       0.111700
     69 H321        -2.9640    -4.4620    35.3300 hc         1 BSD       0.059200
     70 H322        -4.6700    -4.8570    35.3370 hc         1 BSD       0.059200
     71 H39         -3.0530    -1.9660    35.1850 h1         1 BSD       0.020700
     72 H34         -5.6030    -6.0020    33.0830 ha         1 BSD       0.108000
     73 H38         -1.4310    -5.9130    34.2210 ha         1 BSD       0.108000
     74 H35         -5.1390    -7.9040    31.5510 ha         1 BSD       0.114000
     75 H36         -2.8250    -8.8080    31.3430 ha         1 BSD       0.116000
     76 H37         -0.9740    -7.8110    32.6820 ha         1 BSD       0.114000
     77 HA          -4.8500    -1.4140    36.5110 ho         1 BSD       0.444000
     78 H301        -4.4380     0.1080    34.8070 h1         1 BSD       0.034200
     79 H302        -3.5170    -0.4790    33.4310 h1         1 BSD       0.034200
     80 H4          -5.6480     0.2010    32.7170 hn         1 BSD       0.445000
     81 H411        -6.9530    -1.8510    34.3970 h1         1 BSD       0.029700
     82 H412        -7.0700    -0.0980    34.6360 h1         1 BSD       0.029700
     83 H43         -7.2790    -2.5320    31.7620 ha         1 BSD       0.137000
     84 H47         -9.0540     0.8520    33.7500 ha         1 BSD       0.109000
     85 H45        -10.9390    -0.7980    30.2410 ha         1 BSD       0.124000
     86 H46        -10.8960     0.8800    32.0820 ha         1 BSD       0.111000
     87 H481        -7.1940    -3.2120    29.4410 h1         1 BSD       0.039367
     88 H482        -8.0970    -4.3540    30.4730 h1         1 BSD       0.039367
     89 H483        -8.4160    -4.2860    28.7270 h1         1 BSD       0.039367
@<TRIPOS>BOND
     1     1     2 ar  
     2     1     6 ar  
     3     1    48 1   
     4     2     3 ar  
     5     2    49 1   
     6     3     4 ar  
     7     3    50 1   
     8     4     5 ar  
     9     4    51 1   
    10     5     6 ar  
    11     5    52 1   
    12     6     7 1   
    13     7     8 1   
    14     7     9 1   
    15     7    53 1   
    16     8    54 1   
    17     8    55 1   
    18     8    56 1   
    19     9    10 1   
    20     9    57 1   
    21    10    11 2   
    22    10    12 1   
    23    12    13 ar  
    24    12    17 ar  
    25    13    14 ar  
    26    13    58 1   
    27    14    15 ar  
    28    14    18 1   
    29    15    16 ar  
    30    15    60 1   
    31    16    17 ar  
    32    16    24 1   
    33    17    59 1   
    34    18    19 1   
    35    18    20 1   
    36    19    61 1   
    37    19    62 1   
    38    19    63 1   
    39    20    21 2   
    40    20    22 2   
    41    20    23 1   
    42    23    64 1   
    43    23    65 1   
    44    23    66 1   
    45    24    25 2   
    46    24    26 1   
    47    26    27 1   
    48    26    67 1   
    49    27    28 1   
    50    27    35 1   
    51    27    68 1   
    52    28    29 1   
    53    28    69 1   
    54    28    70 1   
    55    29    30 ar  
    56    29    34 ar  
    57    30    31 ar  
    58    30    72 1   
    59    31    32 ar  
    60    31    74 1   
    61    32    33 ar  
    62    32    75 1   
    63    33    34 ar  
    64    33    76 1   
    65    34    73 1   
    66    35    36 1   
    67    35    37 1   
    68    35    71 1   
    69    36    77 1   
    70    37    38 1   
    71    37    78 1   
    72    37    79 1   
    73    38    39 1   
    74    38    80 1   
    75    39    40 1   
    76    39    81 1   
    77    39    82 1   
    78    40    41 ar  
    79    40    45 ar  
    80    41    42 ar  
    81    41    83 1   
    82    42    43 ar  
    83    42    46 1   
    84    43    44 ar  
    85    43    85 1   
    86    44    45 ar  
    87    44    86 1   
    88    45    84 1   
    89    46    47 1   
    90    47    87 1   
    91    47    88 1   
    92    47    89 1   
@<TRIPOS>SUBSTRUCTURE
     1 BSD         1 TEMP              0 ****  ****    0 ROOT
