@<TRIPOS>MOLECULE
BSD
   89    92     1     0     0
SMALL
abcg2


@<TRIPOS>ATOM
      1 C11          4.2960    -6.6050    32.8640 ca         1 BSD      -0.093000
      2 C12          5.5890    -6.1310    33.0490 ca         1 BSD      -0.109500
      3 C13          5.7960    -4.8740    33.5990 ca         1 BSD      -0.105000
      4 C14          4.7040    -4.0970    33.9670 ca         1 BSD      -0.109500
      5 C15          3.4140    -4.5760    33.7850 ca         1 BSD      -0.093000
      6 C16          3.1990    -5.8350    33.2310 ca         1 BSD      -0.102300
      7 C17          1.7960    -6.3840    33.0770 c3         1 BSD       0.163000
      8 C18          1.2250    -6.8070    34.4250 c3         1 BSD      -0.104100
      9 N21          0.8970    -5.4280    32.4570 ns         1 BSD      -0.500900
     10 C21          1.0050    -5.0900    31.1610 c          1 BSD       0.615700
     11 O21          1.8530    -5.5640    30.4210 o          1 BSD      -0.588100
     12 C23          0.0090    -4.0960    30.6540 ca         1 BSD      -0.140600
     13 C24          0.3570    -3.3220    29.5560 ca         1 BSD      -0.029000
     14 C25         -0.5520    -2.4200    29.0160 ca         1 BSD       0.261000
     15 C26         -1.8300    -2.3250    29.5500 ca         1 BSD      -0.061000
     16 C27         -2.1900    -3.1070    30.6400 ca         1 BSD      -0.147600
     17 C28         -1.2690    -3.9880    31.1940 ca         1 BSD      -0.073000
     18 N22         -0.1920    -1.6590    27.8800 nh         1 BSD      -0.786300
     19 C29         -1.1680    -1.4790    26.8090 c3         1 BSD       0.202100
     20 S2           0.9720    -0.4710    28.0400 s6         1 BSD       1.207100
     21 O23          0.4270     0.7900    27.5580 o          1 BSD      -0.533500
     22 O24          1.4910    -0.5430    29.3950 o          1 BSD      -0.533500
     23 C20          2.2320    -0.9910    26.9050 c3         1 BSD      -0.349100
     24 C22         -3.5980    -3.0420    31.1430 c          1 BSD       0.618700
     25 O22         -4.5300    -2.9090    30.3650 o          1 BSD      -0.588100
     26 N3          -3.7310    -3.1430    32.4760 ns         1 BSD      -0.503900
     27 C31         -4.9870    -3.3360    33.1700 c3         1 BSD       0.117700
     28 C32         -4.9020    -4.6090    34.0290 c3         1 BSD      -0.042100
     29 C33         -4.3750    -5.7810    33.2490 ca         1 BSD      -0.078300
     30 C34         -5.1320    -6.3600    32.2330 ca         1 BSD      -0.113000
     31 C35         -4.6340    -7.4140    31.4810 ca         1 BSD      -0.106500
     32 C36         -3.3620    -7.9130    31.7350 ca         1 BSD      -0.108000
     33 C37         -2.6000    -7.3510    32.7490 ca         1 BSD      -0.106500
     34 C38         -3.1050    -6.2960    33.4990 ca         1 BSD      -0.113000
     35 C39         -5.3170    -2.0930    34.0010 c3         1 BSD       0.159300
     36 O3          -6.4500    -2.4100    34.7790 oh         1 BSD      -0.654000
     37 C30         -5.5590    -0.8680    33.1180 c3         1 BSD       0.161800
     38 N4          -6.6760    -1.0610    32.2190 n7         1 BSD      -0.907400
     39 C41         -7.9240    -0.4220    32.5650 c3         1 BSD       0.235100
     40 C42         -9.1100    -1.2010    32.0500 ca         1 BSD      -0.051300
     41 C43         -9.1730    -2.5720    32.3030 ca         1 BSD      -0.167000
     42 C44        -10.2590    -3.3170    31.8630 ca         1 BSD       0.131100
     43 C45        -11.2930    -2.6910    31.1590 ca         1 BSD      -0.142000
     44 C46        -11.2240    -1.3340    30.9100 ca         1 BSD      -0.082000
     45 C47        -10.1350    -0.5840    31.3500 ca         1 BSD      -0.146000
     46 O4         -10.3970    -4.6450    32.0680 os         1 BSD      -0.345100
     47 C48         -9.3660    -5.3270    32.7480 c3         1 BSD       0.148900
     48 H11          4.1390    -7.5840    32.4270 ha         1 BSD       0.109500
     49 H12          6.4330    -6.7420    32.7560 ha         1 BSD       0.113000
     50 H13          6.8020    -4.5000    33.7400 ha         1 BSD       0.112000
     51 H14          4.8580    -3.1160    34.3990 ha         1 BSD       0.113000
     52 H15          2.5720    -3.9590    34.0780 ha         1 BSD       0.109500
     53 H17          1.8400    -7.2640    32.4310 h1         1 BSD       0.074700
     54 H181         0.2300    -7.2400    34.3130 hc         1 BSD       0.044367
     55 H182         1.8680    -7.5590    34.8810 hc         1 BSD       0.044367
     56 H183         1.1590    -5.9630    35.1150 hc         1 BSD       0.044367
     57 H21          0.2970    -4.8880    33.0600 hn         1 BSD       0.312500
     58 H24          1.3350    -3.4410    29.1080 ha         1 BSD       0.142000
     59 H28         -1.5810    -4.6450    31.9960 ha         1 BSD       0.125000
     60 H26         -2.5510    -1.6430    29.1180 ha         1 BSD       0.138000
     61 H291        -1.9100    -0.7090    27.0220 h1         1 BSD       0.052367
     62 H292        -0.6640    -1.2270    25.8770 h1         1 BSD       0.052367
     63 H293        -1.6750    -2.4290    26.6550 h1         1 BSD       0.052367
     64 H201         1.8110    -1.0810    25.9070 h1         1 BSD       0.105033
     65 H202         3.0150    -0.2340    26.9060 h1         1 BSD       0.105033
     66 H203         2.6350    -1.9470    27.2300 h1         1 BSD       0.105033
     67 H3          -2.8930    -3.1430    33.0380 hn         1 BSD       0.308500
     68 H31         -5.7610    -3.4530    32.4100 h1         1 BSD       0.111700
     69 H321        -4.2550    -4.4220    34.8920 hc         1 BSD       0.059200
     70 H322        -5.8940    -4.8350    34.4230 hc         1 BSD       0.059200
     71 H39         -4.4510    -1.8800    34.6480 h1         1 BSD       0.020700
     72 H34         -6.1270    -5.9830    32.0220 ha         1 BSD       0.108000
     73 H38         -2.5020    -5.8640    34.2910 ha         1 BSD       0.108000
     74 H35         -5.2410    -7.8480    30.6970 ha         1 BSD       0.114000
     75 H36         -2.9710    -8.7350    31.1490 ha         1 BSD       0.116000
     76 H37         -1.6100    -7.7360    32.9560 ha         1 BSD       0.114000
     77 HA          -6.6320    -1.6710    35.3690 ho         1 BSD       0.444000
     78 H301        -5.6990     0.0060    33.7690 h1         1 BSD       0.034200
     79 H302        -4.6500    -0.6630    32.5500 h1         1 BSD       0.034200
     80 H4          -6.4220    -0.8730    31.2630 hn         1 BSD       0.445000
     81 H411        -7.9950    -0.3740    33.6540 h1         1 BSD       0.029700
     82 H412        -7.9960     0.6180    32.2150 h1         1 BSD       0.029700
     83 H43         -8.3550    -3.0240    32.8470 ha         1 BSD       0.137000
     84 H47        -10.0870     0.4780    31.1410 ha         1 BSD       0.109000
     85 H45        -12.1360    -3.2750    30.8100 ha         1 BSD       0.124000
     86 H46        -12.0230    -0.8540    30.3610 ha         1 BSD       0.111000
     87 H481        -8.4130    -5.2640    32.2120 h1         1 BSD       0.039367
     88 H482        -9.2220    -4.9500    33.7650 h1         1 BSD       0.039367
     89 H483        -9.6640    -6.3720    32.8030 h1         1 BSD       0.039367
@<TRIPOS>BOND
     1     1     2 ar  
     2     1     6 ar  
     3     1    48 1   
     4     2     3 ar  
     5     2    49 1   
     6     3     4 ar  
     7     3    50 1   
     8     4     5 ar  
     9     4    51 1   
    10     5     6 ar  
    11     5    52 1   
    12     6     7 1   
    13     7     8 1   
    14     7     9 1   
    15     7    53 1   
    16     8    54 1   
    17     8    55 1   
    18     8    56 1   
    19     9    10 1   
    20     9    57 1   
    21    10    11 2   
    22    10    12 1   
    23    12    13 ar  
    24    12    17 ar  
    25    13    14 ar  
    26    13    58 1   
    27    14    15 ar  
    28    14    18 1   
    29    15    16 ar  
    30    15    60 1   
    31    16    17 ar  
    32    16    24 1   
    33    17    59 1   
    34    18    19 1   
    35    18    20 1   
    36    19    61 1   
    37    19    62 1   
    38    19    63 1   
    39    20    21 2   
    40    20    22 2   
    41    20    23 1   
    42    23    64 1   
    43    23    65 1   
    44    23    66 1   
    45    24    25 2   
    46    24    26 1   
    47    26    27 1   
    48    26    67 1   
    49    27    28 1   
    50    27    35 1   
    51    27    68 1   
    52    28    29 1   
    53    28    69 1   
    54    28    70 1   
    55    29    30 ar  
    56    29    34 ar  
    57    30    31 ar  
    58    30    72 1   
    59    31    32 ar  
    60    31    74 1   
    61    32    33 ar  
    62    32    75 1   
    63    33    34 ar  
    64    33    76 1   
    65    34    73 1   
    66    35    36 1   
    67    35    37 1   
    68    35    71 1   
    69    36    77 1   
    70    37    38 1   
    71    37    78 1   
    72    37    79 1   
    73    38    39 1   
    74    38    80 1   
    75    39    40 1   
    76    39    81 1   
    77    39    82 1   
    78    40    41 ar  
    79    40    45 ar  
    80    41    42 ar  
    81    41    83 1   
    82    42    43 ar  
    83    42    46 1   
    84    43    44 ar  
    85    43    85 1   
    86    44    45 ar  
    87    44    86 1   
    88    45    84 1   
    89    46    47 1   
    90    47    87 1   
    91    47    88 1   
    92    47    89 1   
@<TRIPOS>SUBSTRUCTURE
     1 BSD         1 TEMP              0 ****  ****    0 ROOT
