@<TRIPOS>MOLECULE
BSE
   16    15     1     0     0
SMALL
bcc


@<TRIPOS>ATOM
      1 N            0.3440    -3.1030    -0.9780 n8         1 BSE      -0.897800
      2 CC          -0.7040    -2.6100    -0.0930 c3         1 BSE       0.158800
      3 CA          -0.1300    -1.8440     1.0980 c3         1 BSE      -0.231700
      4 C           -1.2700    -1.4360     2.0520 c          1 BSE       0.934600
      5 O           -2.0960    -0.6140     1.6030 o          1 BSE      -0.838300
      6 CB           0.6510    -0.6220     0.6370 c3         1 BSE       0.157400
      7 OG           1.1490     0.1510     1.7130 oh         1 BSE      -0.601800
      8 OXT         -1.2960    -1.9640     3.1820 o          1 BSE      -0.838300
      9 H           -0.0810    -3.6040    -1.7480 hn         1 BSE       0.313300
     10 H2           0.9010    -3.7900    -0.4840 hn         1 BSE       0.313300
     11 HC1         -1.3460    -1.9370    -0.6660 h1         1 BSE       0.033700
     12 HC2         -1.3550    -3.4120     0.2870 h1         1 BSE       0.033700
     13 HA           0.5540    -2.5150     1.6360 hc         1 BSE       0.023700
     14 HB2          1.4590    -0.9280    -0.0370 h1         1 BSE       0.029200
     15 HB3         -0.0130     0.0330     0.0680 h1         1 BSE       0.029200
     16 HG           1.7100    -0.4190     2.2480 ho         1 BSE       0.382000
@<TRIPOS>BOND
     1     1     2 1   
     2     1     9 1   
     3     1    10 1   
     4     2     3 1   
     5     2    11 1   
     6     2    12 1   
     7     3     4 1   
     8     3     6 1   
     9     3    13 1   
    10     4     5 1   
    11     4     8 1   
    12     6     7 1   
    13     6    14 1   
    14     6    15 1   
    15     7    16 1   
@<TRIPOS>SUBSTRUCTURE
     1 BSE         1 TEMP              0 ****  ****    0 ROOT
