@<TRIPOS>MOLECULE
BSE
   16    15     1     0     0
SMALL
No Charge or Current Charge


@<TRIPOS>ATOM
      1 N            0.3600    -3.1510    -0.9530 n8         1 BSE      -0.897800
      2 CC          -0.7150    -2.5840    -0.1180 c3         1 BSE       0.158800
      3 CA          -0.1530    -1.7990     1.0820 c3         1 BSE      -0.231700
      4 C           -1.3100    -1.4300     2.0250 c          1 BSE       0.934600
      5 O           -2.2160    -0.7190     1.6060 o          1 BSE      -0.838300
      6 CB           0.6280    -0.5370     0.6560 c3         1 BSE       0.157400
      7 OG           1.2470     0.0650     1.7960 oh         1 BSE      -0.601800
      8 OXT         -1.3150    -1.9080     3.1530 o          1 BSE      -0.838300
      9 H           -0.0580    -3.7240    -1.6930 hn         1 BSE       0.313300
     10 H2           0.9030    -3.8130    -0.3900 hn         1 BSE       0.313300
     11 HC1         -1.3390    -1.9290    -0.7420 h1         1 BSE       0.033700
     12 HC2         -1.3390    -3.4120     0.2460 h1         1 BSE       0.033700
     13 HA           0.5350    -2.4600     1.6250 hc         1 BSE       0.023700
     14 HB2          1.3980    -0.8080    -0.0790 h1         1 BSE       0.029200
     15 HB3         -0.0540     0.1740     0.1710 h1         1 BSE       0.029200
     16 HG           1.9050    -0.5780     2.1340 ho         1 BSE       0.382000
@<TRIPOS>BOND
     1     1     2 1   
     2     1     9 1   
     3     1    10 1   
     4     2     3 1   
     5     2    11 1   
     6     2    12 1   
     7     3     4 1   
     8     3     6 1   
     9     3    13 1   
    10     4     5 1   
    11     4     8 1   
    12     6     7 1   
    13     6    14 1   
    14     6    15 1   
    15     7    16 1   
@<TRIPOS>SUBSTRUCTURE
     1 BSE         1 TEMP              0 ****  ****    0 ROOT
