@<TRIPOS>MOLECULE
BSM
   45    47     1     0     0
SMALL
bcc


@<TRIPOS>ATOM
      1 C22         -5.7630     0.8840    -0.3350 c3         1 BSM       0.126700
      2 O21         -5.1140     0.0290     0.5840 os         1 BSM      -0.320900
      3 C18         -3.7690     0.0730     0.6640 ca         1 BSM       0.139100
      4 C19         -3.1750    -0.7920     1.5870 ca         1 BSM      -0.195000
      5 C20         -1.8040    -0.8150     1.7390 ca         1 BSM      -0.064000
      6 C17         -2.9620     0.9090    -0.1010 ca         1 BSM      -0.195000
      7 C16         -1.5820     0.8720     0.0670 ca         1 BSM      -0.064000
      8 C7          -0.9790     0.0200     0.9830 ca         1 BSM      -0.031000
      9 C3           0.4810    -0.0260     1.1050 cc         1 BSM      -0.123300
     10 C2           1.3190     0.0890     2.2380 cc         1 BSM       0.269800
     11 C8           0.9400     0.3420     3.6500 c          1 BSM       0.595600
     12 O9          -0.2080     0.6230     3.9660 o          1 BSM      -0.596100
     13 N10          1.9430     0.2450     4.5330 ns         1 BSM      -0.568900
     14 C26          1.7720     0.5070     5.9470 c3         1 BSM       0.108000
     15 C27          3.0450     0.1790     6.7030 c3         1 BSM      -0.111100
     16 N1           2.5980    -0.0010     1.9000 nd         1 BSM      -0.523800
     17 N5           2.6020    -0.1700     0.5970 na         1 BSM       0.020400
     18 C4           1.3670    -0.1980     0.0560 cd         1 BSM      -0.038300
     19 C6           1.1430    -0.3630    -1.3810 ca         1 BSM      -0.110000
     20 C11          1.6810     0.5410    -2.2880 ca         1 BSM      -0.029000
     21 C12          1.4690     0.4000    -3.6460 ca         1 BSM      -0.121600
     22 CL25         2.1370     1.5500    -4.7610 cl         1 BSM      -0.107400
     23 C13          0.7030    -0.6580    -4.1380 ca         1 BSM       0.214100
     24 O24          0.4580    -0.8470    -5.4380 oh         1 BSM      -0.482100
     25 C14          0.1680    -1.5700    -3.2360 ca         1 BSM      -0.274000
     26 C15          0.3840    -1.4340    -1.8720 ca         1 BSM       0.220100
     27 O23         -0.0930    -2.3130    -0.9840 oh         1 BSM      -0.464100
     28 H221        -6.8280     0.6910    -0.2390 h1         1 BSM       0.038367
     29 H222        -5.5760     1.9380    -0.1150 h1         1 BSM       0.038367
     30 H223        -5.4600     0.6820    -1.3650 h1         1 BSM       0.038367
     31 H19         -3.8010    -1.4490     2.1780 ha         1 BSM       0.137500
     32 H20         -1.3650    -1.5020     2.4500 ha         1 BSM       0.133000
     33 H17         -3.3820     1.5950    -0.8240 ha         1 BSM       0.137500
     34 H16         -0.9680     1.5360    -0.5300 ha         1 BSM       0.133000
     35 H10          2.8690     0.0440     4.1870 hn         1 BSM       0.330500
     36 H261         0.9440    -0.0920     6.3310 h1         1 BSM       0.049200
     37 H262         1.5030     1.5550     6.1070 h1         1 BSM       0.049200
     38 H271         2.9110     0.3820     7.7640 hc         1 BSM       0.041033
     39 H272         3.3120    -0.8730     6.5930 hc         1 BSM       0.041033
     40 H273         3.8840     0.7820     6.3530 hc         1 BSM       0.041033
     41 H5           3.4780    -0.2900     0.1090 hn         1 BSM       0.324700
     42 H11          2.2590     1.3820    -1.9260 ha         1 BSM       0.152000
     43 H24          0.8700    -0.1580    -5.9760 ho         1 BSM       0.446000
     44 H14         -0.4130    -2.4020    -3.6190 ha         1 BSM       0.156000
     45 H23         -0.6260    -2.9860    -1.4230 ho         1 BSM       0.435000
@<TRIPOS>BOND
     1     1     2 1   
     2     1    28 1   
     3     1    29 1   
     4     1    30 1   
     5     2     3 1   
     6     3     4 ar  
     7     3     6 ar  
     8     4     5 ar  
     9     4    31 1   
    10     5     8 ar  
    11     5    32 1   
    12     6     7 ar  
    13     6    33 1   
    14     7     8 ar  
    15     7    34 1   
    16     8     9 1   
    17     9    10 1   
    18     9    18 2   
    19    10    11 1   
    20    10    16 2   
    21    11    12 2   
    22    11    13 1   
    23    13    14 1   
    24    13    35 1   
    25    14    15 1   
    26    14    36 1   
    27    14    37 1   
    28    15    38 1   
    29    15    39 1   
    30    15    40 1   
    31    16    17 1   
    32    17    18 1   
    33    17    41 1   
    34    18    19 1   
    35    19    20 ar  
    36    19    26 ar  
    37    20    21 ar  
    38    20    42 1   
    39    21    22 1   
    40    21    23 ar  
    41    23    24 1   
    42    23    25 ar  
    43    24    43 1   
    44    25    26 ar  
    45    25    44 1   
    46    26    27 1   
    47    27    45 1   
@<TRIPOS>SUBSTRUCTURE
     1 BSM         1 TEMP              0 ****  ****    0 ROOT
