@<TRIPOS>MOLECULE
BSM
   45    47     1     0     0
SMALL
No Charge or Current Charge


@<TRIPOS>ATOM
      1 C22         -5.8680     0.6860    -0.3830 c3         1 BSM       0.149900
      2 O21         -5.1280    -0.0390     0.6150 os         1 BSM      -0.344100
      3 C18         -3.7530     0.0330     0.7070 ca         1 BSM       0.139100
      4 C19         -3.1220    -0.7140     1.7120 ca         1 BSM      -0.177000
      5 C20         -1.7240    -0.6820     1.8550 ca         1 BSM      -0.046000
      6 C17         -2.9710     0.8160    -0.1660 ca         1 BSM      -0.177000
      7 C16         -1.5720     0.8450    -0.0230 ca         1 BSM      -0.046000
      8 C7          -0.9310     0.1030     0.9940 ca         1 BSM      -0.031000
      9 C3           0.5370     0.1450     1.1190 cc         1 BSM      -0.058000
     10 C2           1.3870     0.1430     2.2630 cc         1 BSM       0.204500
     11 C8           0.9120     0.2900     3.6910 c          1 BSM       0.528600
     12 O9          -0.2380     0.4920     4.0620 o          1 BSM      -0.596100
     13 N10          1.9410     0.2100     4.6110 ns         1 BSM      -0.501900
     14 C26          1.7790     0.3300     6.0590 c3         1 BSM       0.108000
     15 C27          3.1190     0.1590     6.7920 c3         1 BSM      -0.111100
     16 N1           2.6750     0.0900     1.9370 nd         1 BSM      -0.523800
     17 N5           2.6540     0.0670     0.5480 na         1 BSM       0.020800
     18 C4           1.3590     0.0680     0.0150 cd         1 BSM      -0.089000
     19 C6           1.0880    -0.2260    -1.4160 ca         1 BSM      -0.110000
     20 C11          1.8920     0.4270    -2.3770 ca         1 BSM      -0.011000
     21 C12          1.6870     0.2200    -3.7510 ca         1 BSM      -0.030000
     22 Cl25         2.6920     1.0850    -4.9150 cl         1 BSM      -0.199000
     23 C13          0.6870    -0.6660    -4.1840 ca         1 BSM       0.214100
     24 O24          0.4750    -0.8830    -5.5130 oh         1 BSM      -0.521100
     25 C14         -0.0870    -1.3570    -3.2470 ca         1 BSM      -0.256000
     26 C15          0.1120    -1.1530    -1.8720 ca         1 BSM       0.220100
     27 O23         -0.5730    -1.9510    -1.0060 oh         1 BSM      -0.503100
     28 H221        -6.9420     0.4880    -0.2790 h1         1 BSM       0.038367
     29 H222        -5.7100     1.7670    -0.2770 h1         1 BSM       0.038367
     30 H223        -5.5630     0.3820    -1.3930 h1         1 BSM       0.038367
     31 H19         -3.7190    -1.3300     2.3800 ha         1 BSM       0.119500
     32 H20         -1.2580    -1.3020     2.6160 ha         1 BSM       0.115000
     33 H17         -3.4240     1.4060    -0.9570 ha         1 BSM       0.119500
     34 H16         -0.9850     1.4630    -0.6970 ha         1 BSM       0.115000
     35 H10          2.8680     0.0620     4.2260 hn         1 BSM       0.330500
     36 H261         1.0720    -0.4360     6.4040 h1         1 BSM       0.049200
     37 H262         1.3580     1.3180     6.2890 h1         1 BSM       0.049200
     38 H271         2.9740     0.2530     7.8740 hc         1 BSM       0.041033
     39 H272         3.5500    -0.8290     6.5870 hc         1 BSM       0.041033
     40 H273         3.8360     0.9260     6.4730 hc         1 BSM       0.041033
     41 H5           3.5180    -0.0080     0.0130 hn         1 BSM       0.375000
     42 H11          2.6580     1.1310    -2.0610 ha         1 BSM       0.134000
     43 H24          1.1130    -0.3240    -6.0070 ho         1 BSM       0.485000
     44 H14         -0.8290    -2.0700    -3.5970 ha         1 BSM       0.138000
     45 H23         -1.1740    -2.5230    -1.5260 ho         1 BSM       0.474000
@<TRIPOS>BOND
     1     1     2 1   
     2     1    28 1   
     3     1    29 1   
     4     1    30 1   
     5     2     3 1   
     6     3     4 ar  
     7     3     6 ar  
     8     4     5 ar  
     9     4    31 1   
    10     5     8 ar  
    11     5    32 1   
    12     6     7 ar  
    13     6    33 1   
    14     7     8 ar  
    15     7    34 1   
    16     8     9 1   
    17     9    10 1   
    18     9    18 2   
    19    10    11 1   
    20    10    16 2   
    21    11    12 2   
    22    11    13 1   
    23    13    14 1   
    24    13    35 1   
    25    14    15 1   
    26    14    36 1   
    27    14    37 1   
    28    15    38 1   
    29    15    39 1   
    30    15    40 1   
    31    16    17 1   
    32    17    18 1   
    33    17    41 1   
    34    18    19 1   
    35    19    20 ar  
    36    19    26 ar  
    37    20    21 ar  
    38    20    42 1   
    39    21    22 1   
    40    21    23 ar  
    41    23    24 1   
    42    23    25 ar  
    43    24    43 1   
    44    25    26 ar  
    45    25    44 1   
    46    26    27 1   
    47    27    45 1   
@<TRIPOS>SUBSTRUCTURE
     1 BSM         1 TEMP              0 ****  ****    0 ROOT
