@<TRIPOS>MOLECULE
BSO
   32    33     1     0     0
SMALL
No Charge or Current Charge


@<TRIPOS>ATOM
      1 C11          5.4240     0.2200     0.1360 c          1 BSO       0.717000
      2 O11          5.8030     0.6480    -0.9440 o          1 BSO      -0.742500
      3 O12          5.9830     0.4640     1.1940 o          1 BSO      -0.742500
      4 C10          4.1360    -0.6240     0.1720 c3         1 BSO      -0.205400
      5 C9           2.9020     0.2920     0.3550 c3         1 BSO      -0.052400
      6 C8           1.5680    -0.4880     0.4040 c3         1 BSO      -0.088400
      7 C7           0.3370     0.4290     0.5850 c3         1 BSO      -0.052400
      8 C2          -1.0180    -0.3200     0.7260 c5         1 BSO      -0.022400
      9 S1          -1.5640    -1.2330    -0.8080 s4         1 BSO       0.198400
     10 C6          -3.1580    -1.5590     0.0880 c5         1 BSO      -0.055100
     11 C5          -3.5660    -0.2300     0.7950 c5         1 BSO       0.099700
     12 N1          -4.1680     0.5820    -0.2630 ns         1 BSO      -0.506900
     13 C3          -3.4160     1.6560    -0.5980 c          1 BSO       0.591000
     14 O3          -3.6990     2.4750    -1.4500 o          1 BSO      -0.574000
     15 N2          -2.3030     1.6800     0.1700 ns         1 BSO      -0.509900
     16 C4          -2.2440     0.5750     1.1310 c5         1 BSO       0.122700
     17 O10         -0.8120    -2.5450    -0.8680 o          1 BSO      -0.501000
     18 H101         3.9890    -1.1390    -0.7860 hc         1 BSO       0.018700
     19 H102         4.1430    -1.2960     1.0380 hc         1 BSO       0.018700
     20 H9C1         3.0150     0.8680     1.2820 hc         1 BSO       0.038200
     21 H9C2         2.8650     1.0170    -0.4680 hc         1 BSO       0.038200
     22 H8C1         1.4620    -1.0620    -0.5240 hc         1 BSO       0.036700
     23 H8C2         1.6030    -1.2120     1.2280 hc         1 BSO       0.036700
     24 H7C1         0.4960     1.0420     1.4810 hc         1 BSO       0.043200
     25 H7C2         0.2960     1.1240    -0.2620 hc         1 BSO       0.043200
     26 H2          -0.8870    -1.0970     1.4900 h1         1 BSO       0.084700
     27 H6C1        -2.9540    -2.3510     0.8190 h1         1 BSO       0.087200
     28 H6C2        -3.9040    -1.9250    -0.6280 h1         1 BSO       0.087200
     29 H5          -4.2300    -0.3770     1.6570 h1         1 BSO       0.054700
     30 H1          -5.0530     0.4230    -0.7280 hn         1 BSO       0.318500
     31 HA          -1.6430     2.4420     0.0700 hn         1 BSO       0.345500
     32 H4          -2.2020     0.9190     2.1730 h1         1 BSO       0.070700
@<TRIPOS>BOND
     1     1     2 1   
     2     1     3 1   
     3     1     4 1   
     4     4     5 1   
     5     4    18 1   
     6     4    19 1   
     7     5     6 1   
     8     5    20 1   
     9     5    21 1   
    10     6     7 1   
    11     6    22 1   
    12     6    23 1   
    13     7     8 1   
    14     7    24 1   
    15     7    25 1   
    16     8     9 1   
    17     8    16 1   
    18     8    26 1   
    19     9    10 1   
    20     9    17 2   
    21    10    11 1   
    22    10    27 1   
    23    10    28 1   
    24    11    12 1   
    25    11    16 1   
    26    11    29 1   
    27    12    13 1   
    28    12    30 1   
    29    13    14 2   
    30    13    15 1   
    31    15    16 1   
    32    15    31 1   
    33    16    32 1   
@<TRIPOS>SUBSTRUCTURE
     1 BSO         1 TEMP              0 ****  ****    0 ROOT
