@<TRIPOS>MOLECULE
BSO
   32    33     1     0     0
SMALL
abcg2


@<TRIPOS>ATOM
      1 C11          5.3090     0.3270    -0.1110 c          1 BSO       0.717000
      2 O11          6.3360    -0.3560    -0.3150 o          1 BSO      -0.742500
      3 O12          5.2580     1.5700    -0.0200 o          1 BSO      -0.742500
      4 C10          3.9970    -0.4620     0.0440 c3         1 BSO      -0.205400
      5 C9           2.7400     0.3660     0.2520 c3         1 BSO      -0.052400
      6 C8           1.4880    -0.4930     0.3820 c3         1 BSO      -0.088400
      7 C7           0.2360     0.3490     0.6020 c3         1 BSO      -0.052400
      8 C2          -1.0260    -0.4630     0.8370 c5         1 BSO      -0.022400
      9 S1          -1.4800    -1.4700    -0.6370 s4         1 BSO       0.198400
     10 C6          -3.1710    -1.6220     0.0150 c5         1 BSO      -0.055100
     11 C5          -3.5090    -0.2280     0.4890 c5         1 BSO       0.099700
     12 N1          -3.6310     0.7000    -0.6160 ns         1 BSO      -0.506900
     13 C3          -3.0320     1.9000    -0.3360 c          1 BSO       0.591000
     14 O3          -3.1340     2.9270    -0.9830 o          1 BSO      -0.574000
     15 N2          -2.3020     1.7220     0.7990 ns         1 BSO      -0.509900
     16 C4          -2.2790     0.3520     1.2340 c5         1 BSO       0.122700
     17 O10         -0.8080    -2.8180    -0.5270 o          1 BSO      -0.501000
     18 H101         3.8760    -1.1010    -0.8390 hc         1 BSO       0.018700
     19 H102         4.1170    -1.1610     0.8800 hc         1 BSO       0.018700
     20 H9C1         2.8460     0.9850     1.1480 hc         1 BSO       0.038200
     21 H9C2         2.6120     1.0640    -0.5810 hc         1 BSO       0.038200
     22 H8C1         1.3780    -1.1100    -0.5150 hc         1 BSO       0.036700
     23 H8C2         1.6050    -1.1940     1.2150 hc         1 BSO       0.036700
     24 H7C1         0.3940     0.9900     1.4770 hc         1 BSO       0.043200
     25 H7C2         0.0920     1.0240    -0.2470 hc         1 BSO       0.043200
     26 H2          -0.8510    -1.2190     1.6100 h1         1 BSO       0.084700
     27 H6C1        -3.1390    -2.3370     0.8390 h1         1 BSO       0.087200
     28 H6C2        -3.8410    -1.9920    -0.7610 h1         1 BSO       0.087200
     29 H5          -4.4020    -0.2320     1.1210 h1         1 BSO       0.054700
     30 H1          -4.4610     0.6960    -1.1880 hn         1 BSO       0.318500
     31 HA          -1.6140     2.3980     1.0870 hn         1 BSO       0.345500
     32 H4          -2.4030     0.2860     2.3140 h1         1 BSO       0.070700
@<TRIPOS>BOND
     1     1     2 1   
     2     1     3 1   
     3     1     4 1   
     4     4     5 1   
     5     4    18 1   
     6     4    19 1   
     7     5     6 1   
     8     5    20 1   
     9     5    21 1   
    10     6     7 1   
    11     6    22 1   
    12     6    23 1   
    13     7     8 1   
    14     7    24 1   
    15     7    25 1   
    16     8     9 1   
    17     8    16 1   
    18     8    26 1   
    19     9    10 1   
    20     9    17 2   
    21    10    11 1   
    22    10    27 1   
    23    10    28 1   
    24    11    12 1   
    25    11    16 1   
    26    11    29 1   
    27    12    13 1   
    28    12    30 1   
    29    13    14 2   
    30    13    15 1   
    31    15    16 1   
    32    15    31 1   
    33    16    32 1   
@<TRIPOS>SUBSTRUCTURE
     1 BSO         1 TEMP              0 ****  ****    0 ROOT
