@<TRIPOS>MOLECULE
BSP
   44    47     1     0     0
SMALL
bcc


@<TRIPOS>ATOM
      1 C5          -0.1810     1.0000    -0.4070 ca         1 BSP       0.029100
      2 C4          -1.4600     1.5090    -0.6530 ca         1 BSP       0.025100
      3 C3          -1.5810     2.8420    -1.0020 ca         1 BSP      -0.030300
      4 C8          -0.4630     3.6420    -1.1130 ca         1 BSP      -0.167600
      5 C7           0.8140     3.1620    -0.8730 ca         1 BSP       0.057100
      6 C6           0.9540     1.8220    -0.5140 ca         1 BSP      -0.008900
      7 BR6          2.6520     1.1230    -0.1830 br         1 BSP      -0.063100
      8 BR7          2.2920     4.2840    -1.0360 br         1 BSP      -0.047100
      9 BR5          0.0160    -0.7920     0.0690 br         1 BSP      -0.039100
     10 BR4         -2.9740     0.4270    -0.5120 br         1 BSP       0.027900
     11 C9          -0.9060     4.9870    -1.5360 c          1 BSP       0.757200
     12 O1          -2.2280     4.9400    -1.7120 os         1 BSP      -0.390900
     13 O9          -0.2680     5.9830    -1.7230 o          1 BSP      -0.571500
     14 C2          -2.8060     3.6620    -1.3530 c5         1 BSP       0.340700
     15 C1          -3.4820     3.0990    -2.5910 ca         1 BSP      -0.190300
     16 C14         -4.7290     2.5000    -2.5450 ca         1 BSP       0.036500
     17 C12         -5.3090     1.9520    -3.6800 ca         1 BSP      -0.360000
     18 C11         -4.6410     1.9980    -4.9100 ca         1 BSP       0.260600
     19 C10         -3.3790     2.6000    -4.9530 ca         1 BSP      -0.223000
     20 C13         -2.8120     3.1310    -3.8160 ca         1 BSP      -0.036500
     21 O4          -5.1410     1.5040    -6.0420 oh         1 BSP      -0.547600
     22 S1          -6.8780     1.1150    -3.5010 s6         1 BSP       1.273600
     23 OS1         -7.7080     1.9590    -2.6360 o          1 BSP      -0.688200
     24 OS2         -6.5720    -0.2030    -2.9340 o          1 BSP      -0.688200
     25 OS3         -7.3960     1.0340    -4.8980 o          1 BSP      -0.688200
     26 C1B         -3.7240     3.9410    -0.1840 ca         1 BSP      -0.190300
     27 C2B         -3.4300     3.5530     1.1110 ca         1 BSP       0.036500
     28 C3B         -4.2600     3.8930     2.1730 ca         1 BSP      -0.360000
     29 C4B         -5.4210     4.6440     1.9520 ca         1 BSP       0.260600
     30 C5B         -5.7030     5.0560     0.6450 ca         1 BSP      -0.223000
     31 C6B         -4.8670     4.7200    -0.3950 ca         1 BSP      -0.036500
     32 O4B         -6.2730     4.9870     2.9160 oh         1 BSP      -0.547600
     33 S1B         -3.7490     3.4290     3.8220 s6         1 BSP       1.273600
     34 OSA         -3.2610     2.0490     3.7420 o          1 BSP      -0.688200
     35 OSB         -4.9990     3.5580     4.6280 o          1 BSP      -0.688200
     36 OSC         -2.7250     4.4020     4.2170 o          1 BSP      -0.688200
     37 H2          -5.2730     2.4500    -1.6110 ha         1 BSP       0.148000
     38 H5          -2.8510     2.6480    -5.8970 ha         1 BSP       0.126000
     39 H6          -1.8300     3.5780    -3.9050 ha         1 BSP       0.122000
     40 H4          -6.0710     1.2130    -5.8620 ho         1 BSP       0.497500
     41 H2B         -2.5420     2.9730     1.3280 ha         1 BSP       0.148000
     42 H5B         -6.5910     5.6480     0.4600 ha         1 BSP       0.126000
     43 H6B         -5.1170     5.0640    -1.3900 ha         1 BSP       0.122000
     44 H4B         -5.9890     4.5300     3.7480 ho         1 BSP       0.497500
@<TRIPOS>BOND
     1     1     2 ar  
     2     1     6 ar  
     3     1     9 1   
     4     2     3 ar  
     5     2    10 1   
     6     3     4 ar  
     7     3    14 1   
     8     4     5 ar  
     9     4    11 1   
    10     5     6 ar  
    11     5     8 1   
    12     6     7 1   
    13    11    12 1   
    14    11    13 2   
    15    12    14 1   
    16    14    15 1   
    17    14    26 1   
    18    15    16 ar  
    19    15    20 ar  
    20    16    17 ar  
    21    16    37 1   
    22    17    18 ar  
    23    17    22 1   
    24    18    19 ar  
    25    18    21 1   
    26    19    20 ar  
    27    19    38 1   
    28    20    39 1   
    29    21    40 1   
    30    22    23 1   
    31    22    24 1   
    32    22    25 1   
    33    26    27 ar  
    34    26    31 ar  
    35    27    28 ar  
    36    27    41 1   
    37    28    29 ar  
    38    28    33 1   
    39    29    30 ar  
    40    29    32 1   
    41    30    31 ar  
    42    30    42 1   
    43    31    43 1   
    44    32    44 1   
    45    33    34 1   
    46    33    35 1   
    47    33    36 1   
@<TRIPOS>SUBSTRUCTURE
     1 BSP         1 TEMP              0 ****  ****    0 ROOT
