@<TRIPOS>MOLECULE
BSP
   44    47     1     0     0
SMALL
No Charge or Current Charge


@<TRIPOS>ATOM
      1 C5          -0.1130     1.0370    -0.3710 ca         1 BSP       0.029100
      2 C4          -1.4000     1.5520    -0.6550 ca         1 BSP       0.025100
      3 C3          -1.5180     2.9060    -1.0290 ca         1 BSP      -0.030300
      4 C8          -0.4040     3.7040    -1.1350 ca         1 BSP      -0.167600
      5 C7           0.8900     3.2230    -0.8630 ca         1 BSP       0.057100
      6 C6           1.0300     1.8710    -0.4720 ca         1 BSP      -0.008900
      7 Br6          2.7780     1.1600    -0.0850 br         1 BSP      -0.063100
      8 Br7          2.4340     4.3610    -1.0230 br         1 BSP      -0.047100
      9 Br5          0.0850    -0.8050     0.1580 br         1 BSP      -0.039100
     10 Br4         -2.9550     0.4260    -0.5090 br         1 BSP       0.027900
     11 C9          -0.8510     5.0420    -1.5900 c          1 BSP       0.681700
     12 O1          -2.2110     5.0170    -1.7770 os         1 BSP      -0.414100
     13 O9          -0.1490     6.0220    -1.7890 o          1 BSP      -0.496000
     14 C2          -2.7560     3.7190    -1.3890 c5         1 BSP       0.363900
     15 C1          -3.4610     3.1220    -2.6220 ca         1 BSP      -0.190300
     16 C14         -4.7140     2.4740    -2.5250 ca         1 BSP       0.054500
     17 C12         -5.3370     1.9060    -3.6550 ca         1 BSP      -0.360000
     18 C11         -4.6960     1.9870    -4.9030 ca         1 BSP       0.260600
     19 C10         -3.4520     2.6200    -5.0110 ca         1 BSP      -0.205000
     20 C13         -2.8350     3.1800    -3.8840 ca         1 BSP      -0.018500
     21 O4          -5.2450     1.4580    -6.0260 oh         1 BSP      -0.586600
     22 S1          -6.9600     1.0810    -3.3990 s6         1 BSP       1.273600
     23 OS1         -7.7650     2.1930    -2.8800 o          1 BSP      -0.688200
     24 OS2         -6.6000     0.0440    -2.4240 o          1 BSP      -0.688200
     25 OS3         -7.2860     0.6160    -4.7560 o          1 BSP      -0.688200
     26 C1B         -3.6940     4.0250    -0.2050 ca         1 BSP      -0.190300
     27 C2B         -3.4480     3.5520     1.1060 ca         1 BSP       0.054500
     28 C3B         -4.3180     3.8550     2.1710 ca         1 BSP      -0.360000
     29 C4B         -5.4460     4.6590     1.9280 ca         1 BSP       0.260600
     30 C5B         -5.6880     5.1540     0.6410 ca         1 BSP      -0.205000
     31 C6B         -4.8190     4.8480    -0.4160 ca         1 BSP      -0.018500
     32 O4B         -6.3200     4.9840     2.9150 oh         1 BSP      -0.586600
     33 S1B         -3.8980     3.1700     3.8240 s6         1 BSP       1.273600
     34 OSA         -3.8660     1.7310     3.5350 o          1 BSP      -0.688200
     35 OSB         -5.0170     3.6480     4.6500 o          1 BSP      -0.688200
     36 OSC         -2.5940     3.7990     4.0670 o          1 BSP      -0.688200
     37 H2          -5.2120     2.3920    -1.5610 ha         1 BSP       0.130000
     38 H5          -2.9570     2.6740    -5.9770 ha         1 BSP       0.108000
     39 H6          -1.8630     3.6550    -3.9970 ha         1 BSP       0.104000
     40 H4          -6.1090     1.0540    -5.7270 ho         1 BSP       0.536500
     41 H2B         -2.5710     2.9440     1.3180 ha         1 BSP       0.130000
     42 H5B         -6.5550     5.7820     0.4590 ha         1 BSP       0.108000
     43 H6B         -5.0240     5.2480    -1.4070 ha         1 BSP       0.104000
     44 H4B         -5.9700     4.5280     3.7330 ho         1 BSP       0.536500
@<TRIPOS>BOND
     1     1     2 ar  
     2     1     6 ar  
     3     1     9 1   
     4     2     3 ar  
     5     2    10 1   
     6     3     4 ar  
     7     3    14 1   
     8     4     5 ar  
     9     4    11 1   
    10     5     6 ar  
    11     5     8 1   
    12     6     7 1   
    13    11    12 1   
    14    11    13 2   
    15    12    14 1   
    16    14    15 1   
    17    14    26 1   
    18    15    16 ar  
    19    15    20 ar  
    20    16    17 ar  
    21    16    37 1   
    22    17    18 ar  
    23    17    22 1   
    24    18    19 ar  
    25    18    21 1   
    26    19    20 ar  
    27    19    38 1   
    28    20    39 1   
    29    21    40 1   
    30    22    23 1   
    31    22    24 1   
    32    22    25 1   
    33    26    27 ar  
    34    26    31 ar  
    35    27    28 ar  
    36    27    41 1   
    37    28    29 ar  
    38    28    33 1   
    39    29    30 ar  
    40    29    32 1   
    41    30    31 ar  
    42    30    42 1   
    43    31    43 1   
    44    32    44 1   
    45    33    34 1   
    46    33    35 1   
    47    33    36 1   
@<TRIPOS>SUBSTRUCTURE
     1 BSP         1 TEMP              0 ****  ****    0 ROOT
