@<TRIPOS>MOLECULE
BST
   58    59     1     0     0
SMALL
bcc


@<TRIPOS>ATOM
      1 O4          -0.8460    -1.9380     0.5960 o          1 BST      -0.809800
      2 N1           4.5570     0.2300     0.5470 n          1 BST      -0.379000
      3 C2           4.7630     0.9670    -0.6050 c          1 BST       0.840500
      4 O2           3.8900     1.6660    -1.0910 o          1 BST      -0.628500
      5 N3           6.0150     0.9000    -1.1170 ns         1 BST      -0.646900
      6 C4           7.0690    -0.0660    -0.8270 c6         1 BST       0.601600
      7 C5           6.7660    -0.6870     0.4940 c2         1 BST      -0.288200
      8 C6           5.5780    -0.5450     1.0700 c2         1 BST       0.052600
      9 C1           3.2540     0.1960     1.1620 c6         1 BST       0.360700
     10 C12          2.6680     1.5480     1.4360 c2         1 BST      -0.236200
     11 C3           1.3880     1.8080     1.2150 c2         1 BST      -0.110200
     12 C15          0.4750     0.7850     0.5970 c6         1 BST       0.105900
     13 C16          1.0830    -0.6110     0.8180 c6         1 BST      -0.004900
     14 O5           2.4160    -0.6000     0.3690 os         1 BST      -0.365600
     15 O3           0.7910    -2.2610    -0.8880 o          1 BST      -0.809800
     16 C17          0.2820    -1.7160     0.0980 c          1 BST       0.939600
     17 N6          -0.8570     0.8110     1.1670 ns         1 BST      -0.546900
     18 C7          -1.7630     1.7520     0.8570 c          1 BST       0.650100
     19 O7          -1.4780     2.7920     0.2730 o          1 BST      -0.641100
     20 C8          -3.1870     1.4080     1.2200 c3         1 BST      -0.201400
     21 C9          -3.9950     1.0910    -0.0550 c3         1 BST       0.185500
     22 N9          -3.3890     0.0860    -0.9150 n8         1 BST      -0.907800
     23 C10         -5.4100     0.6710     0.3280 c3         1 BST      -0.096400
     24 C11         -6.3350     0.5290    -0.8770 c3         1 BST       0.232800
     25 N12         -7.7130     0.2490    -0.5200 nh         1 BST      -0.762600
     26 C13         -8.4550     1.3460     0.0670 c3         1 BST       0.212100
     27 C14         -8.0700    -1.0510    -0.2700 c2         1 BST       0.787100
     28 N14         -7.2360    -2.0090    -0.4760 n2         1 BST      -0.869100
     29 N15         -9.3390    -1.2200     0.2470 nv         1 BST      -0.959800
     30 N4           8.3700     0.5550    -0.8030 n8         1 BST      -0.916800
     31 O6           7.0670    -1.0970    -1.7800 oh         1 BST      -0.573800
     32 HN3          6.1410     1.4630    -1.9480 hn         1 BST       0.299500
     33 H5           7.5280    -1.2950     0.9590 ha         1 BST       0.153000
     34 H6           5.3480    -1.0320     2.0080 h4         1 BST       0.146000
     35 H1           3.4100    -0.2870     2.1390 h2         1 BST       0.025700
     36 H2           3.3200     2.2770     1.9040 ha         1 BST       0.116000
     37 H3           0.9770     2.7800     1.4600 ha         1 BST       0.132000
     38 H4           0.4090     0.9730    -0.4840 h1         1 BST       0.088700
     39 H7           1.0510    -0.8200     1.9000 h1         1 BST       0.022700
     40 HN6         -1.2100    -0.1000     1.4380 hn         1 BST       0.355500
     41 H81         -3.6390     2.2570     1.7380 hc         1 BST       0.056700
     42 H82         -3.2310     0.5510     1.8970 hc         1 BST       0.056700
     43 H9          -4.0590     2.0140    -0.6420 h1         1 BST       0.053700
     44 HN91        -2.5330     0.4360    -1.3270 hn         1 BST       0.368300
     45 HN92        -3.1240    -0.7350    -0.3810 hn         1 BST       0.368300
     46 H101        -5.8200     1.4130     1.0190 hc         1 BST       0.040700
     47 H102        -5.3760    -0.2790     0.8710 hc         1 BST       0.040700
     48 H111        -5.9710    -0.2600    -1.5290 h1         1 BST       0.069700
     49 H112        -6.3260     1.4570    -1.4570 h1         1 BST       0.069700
     50 H131        -8.0240     2.2810    -0.2840 h1         1 BST       0.028033
     51 H132        -9.4990     1.3550    -0.2460 h1         1 BST       0.028033
     52 H133        -8.4280     1.3560     1.1610 h1         1 BST       0.028033
     53 H14         -7.6860    -2.9040    -0.3200 hn         1 BST       0.367400
     54 H151       -10.0560    -0.5800    -0.0570 hn         1 BST       0.387300
     55 H152        -9.6690    -2.1720     0.2290 hn         1 BST       0.387300
     56 HN41         8.5710     1.0200    -1.6830 hn         1 BST       0.349800
     57 HN42         8.3890     1.2760    -0.0910 hn         1 BST       0.349800
     58 HO6          7.4120    -0.7670    -2.6200 ho         1 BST       0.396000
@<TRIPOS>BOND
     1     1    16 1   
     2     2     3 1   
     3     2     8 1   
     4     2     9 1   
     5     3     4 2   
     6     3     5 1   
     7     5     6 1   
     8     5    32 1   
     9     6     7 1   
    10     6    30 1   
    11     6    31 1   
    12     7     8 2   
    13     7    33 1   
    14     8    34 1   
    15     9    10 1   
    16     9    14 1   
    17     9    35 1   
    18    10    11 2   
    19    10    36 1   
    20    11    12 1   
    21    11    37 1   
    22    12    13 1   
    23    12    17 1   
    24    12    38 1   
    25    13    14 1   
    26    13    16 1   
    27    13    39 1   
    28    15    16 1   
    29    17    18 1   
    30    17    40 1   
    31    18    19 2   
    32    18    20 1   
    33    20    21 1   
    34    20    41 1   
    35    20    42 1   
    36    21    22 1   
    37    21    23 1   
    38    21    43 1   
    39    22    44 1   
    40    22    45 1   
    41    23    24 1   
    42    23    46 1   
    43    23    47 1   
    44    24    25 1   
    45    24    48 1   
    46    24    49 1   
    47    25    26 1   
    48    25    27 1   
    49    26    50 1   
    50    26    51 1   
    51    26    52 1   
    52    27    28 2   
    53    27    29 1   
    54    28    53 1   
    55    29    54 1   
    56    29    55 1   
    57    30    56 1   
    58    30    57 1   
    59    31    58 1   
@<TRIPOS>SUBSTRUCTURE
     1 BST         1 TEMP              0 ****  ****    0 ROOT
