@<TRIPOS>MOLECULE
BST
   58    59     1     0     0
SMALL
No Charge or Current Charge


@<TRIPOS>ATOM
      1 O4           0.0600    -2.9960    -0.4230 o          1 BST      -0.704500
      2 N1           4.8200     0.1870     0.3780 n          1 BST      -0.312000
      3 C2           5.1430     0.9500    -0.7660 c          1 BST       0.631000
      4 O2           4.3100     1.4580    -1.4990 o          1 BST      -0.553000
      5 N3           6.4740     1.1240    -1.0470 ns         1 BST      -0.579900
      6 C4           7.5540     0.5820    -0.3250 c6         1 BST       0.624800
      7 C5           7.1290    -0.2290     0.8420 c2         1 BST      -0.338200
      8 C6           5.8410    -0.3960     1.1550 c2         1 BST       0.002600
      9 C1           3.4240    -0.0560     0.7880 c6         1 BST       0.383900
     10 C12          2.6330     1.2240     1.0280 c2         1 BST      -0.286200
     11 C3           1.3620     1.3800     0.6200 c2         1 BST      -0.160200
     12 C15          0.6130     0.2940    -0.1440 c6         1 BST       0.105900
     13 C16          1.3620    -1.0650    -0.0250 c6         1 BST       0.018300
     14 O5           2.7930    -0.8590    -0.2300 os         1 BST      -0.412000
     15 O3           1.3430    -2.4100    -2.0020 o          1 BST      -0.704500
     16 C17          0.7240    -2.1300    -0.9820 c          1 BST       0.729000
     17 N6          -0.7670     0.1930     0.3570 ns         1 BST      -0.479900
     18 C7          -1.7630     1.1250     0.1730 c          1 BST       0.583100
     19 O7          -1.5900     2.1450    -0.4770 o          1 BST      -0.641100
     20 C8          -3.0860     0.8100     0.8710 c3         1 BST      -0.201400
     21 C9          -4.2120     0.4910    -0.1340 c3         1 BST       0.185500
     22 N9          -4.0070    -0.8450    -0.7170 n8         1 BST      -1.018200
     23 C10         -5.6130     0.5850     0.5140 c3         1 BST      -0.096400
     24 C11         -6.7760     0.3580    -0.4820 c3         1 BST       0.232800
     25 N12         -8.1260     0.6090     0.0840 nh         1 BST      -0.762600
     26 C13         -8.5390     2.0290     0.1680 c3         1 BST       0.212100
     27 C14         -8.8220    -0.3660     0.7170 c2         1 BST       0.787100
     28 N14         -8.2780    -1.2970     1.3500 n2         1 BST      -0.869100
     29 N15        -10.1120    -0.3570     0.4370 nv         1 BST      -1.070200
     30 N4           8.3350     1.6450     0.0880 n8         1 BST      -1.027200
     31 O6           8.3640    -0.1290    -1.1580 oh         1 BST      -0.636000
     32 HN3          6.6840     1.6010    -1.9080 hn         1 BST       0.299500
     33 H5           7.9200    -0.6810     1.4370 ha         1 BST       0.203000
     34 H6           5.5070    -0.9890     2.0090 h4         1 BST       0.196000
     35 H1           3.4330    -0.6310     1.7260 h2         1 BST       0.025700
     36 H2           3.1550     2.0170     1.5630 ha         1 BST       0.166000
     37 H3           0.8260     2.3130     0.8040 ha         1 BST       0.182000
     38 H4           0.5730     0.5760    -1.2070 h1         1 BST       0.088700
     39 H7           1.2320    -1.4420     1.0010 h1         1 BST       0.022700
     40 HN6         -1.0080    -0.6070     0.9320 hn         1 BST       0.355500
     41 H81         -3.3760     1.7060     1.4330 hc         1 BST       0.056700
     42 H82         -2.9710    -0.0250     1.5720 hc         1 BST       0.056700
     43 H9          -4.1720     1.2300    -0.9480 h1         1 BST       0.053700
     44 HN91        -3.0760    -0.8980    -1.1450 hn         1 BST       0.423500
     45 HN92        -3.9670    -1.5400     0.0370 hn         1 BST       0.423500
     46 H101        -5.7260     1.5810     0.9570 hc         1 BST       0.040700
     47 H102        -5.6870    -0.1360     1.3370 hc         1 BST       0.040700
     48 H111        -6.7240    -0.6640    -0.8830 h1         1 BST       0.069700
     49 H112        -6.6150     1.0300    -1.3370 h1         1 BST       0.069700
     50 H131        -7.8250     2.6820    -0.3500 h1         1 BST       0.028033
     51 H132        -9.5260     2.1780    -0.2890 h1         1 BST       0.028033
     52 H133        -8.5910     2.3450     1.2190 h1         1 BST       0.028033
     53 H14         -9.0270    -1.9100     1.6830 hn         1 BST       0.367400
     54 H151       -10.2880     0.2890    -0.3180 hn         1 BST       0.442500
     55 H152       -10.4920    -1.2800     0.2800 hn         1 BST       0.442500
     56 HN41         8.4510     2.2410    -0.7310 hn         1 BST       0.405000
     57 HN42         7.7300     2.1970     0.6970 hn         1 BST       0.405000
     58 HO6          9.2300     0.0270    -0.7370 ho         1 BST       0.435000
@<TRIPOS>BOND
     1     1    16 1   
     2     2     3 1   
     3     2     8 1   
     4     2     9 1   
     5     3     4 2   
     6     3     5 1   
     7     5     6 1   
     8     5    32 1   
     9     6     7 1   
    10     6    30 1   
    11     6    31 1   
    12     7     8 2   
    13     7    33 1   
    14     8    34 1   
    15     9    10 1   
    16     9    14 1   
    17     9    35 1   
    18    10    11 2   
    19    10    36 1   
    20    11    12 1   
    21    11    37 1   
    22    12    13 1   
    23    12    17 1   
    24    12    38 1   
    25    13    14 1   
    26    13    16 1   
    27    13    39 1   
    28    15    16 1   
    29    17    18 1   
    30    17    40 1   
    31    18    19 2   
    32    18    20 1   
    33    20    21 1   
    34    20    41 1   
    35    20    42 1   
    36    21    22 1   
    37    21    23 1   
    38    21    43 1   
    39    22    44 1   
    40    22    45 1   
    41    23    24 1   
    42    23    46 1   
    43    23    47 1   
    44    24    25 1   
    45    24    48 1   
    46    24    49 1   
    47    25    26 1   
    48    25    27 1   
    49    26    50 1   
    50    26    51 1   
    51    26    52 1   
    52    27    28 2   
    53    27    29 1   
    54    28    53 1   
    55    29    54 1   
    56    29    55 1   
    57    30    56 1   
    58    30    57 1   
    59    31    58 1   
@<TRIPOS>SUBSTRUCTURE
     1 BST         1 TEMP              0 ****  ****    0 ROOT
