@<TRIPOS>MOLECULE
BSU
   28    29     1     0     0
SMALL
abcg2


@<TRIPOS>ATOM
      1 N7           0.7030     0.0670     1.1450 ns         1 BSU      -0.166500
      2 C8          -0.0550     0.0130     0.0050 c          1 BSU       0.666100
      3 N9           0.7130    -0.0660    -1.1260 ns         1 BSU      -0.166500
      4 O11         -1.2720     0.0330    -0.0020 o          1 BSU      -0.601100
      5 C5           0.2380     0.1150     2.4620 ca         1 BSU      -0.011500
      6 C4           1.0800    -0.3920     3.4550 ca         1 BSU      -0.144000
      7 C3           0.7100    -0.3420     4.7890 ca         1 BSU      -0.085250
      8 C2          -0.5120     0.2050     5.1590 ca         1 BSU      -0.133500
      9 C1          -1.3470     0.7110     4.1730 ca         1 BSU      -0.085250
     10 C6          -0.9840     0.6780     2.8330 ca         1 BSU      -0.144000
     11 C10          0.2550    -0.1010    -2.4470 ca         1 BSU      -0.011500
     12 C16          1.1080     0.3980    -3.4340 ca         1 BSU      -0.144000
     13 C15          0.7440     0.3590    -4.7700 ca         1 BSU      -0.085250
     14 C14         -0.4840    -0.1690    -5.1470 ca         1 BSU      -0.133500
     15 C13         -1.3300    -0.6680    -4.1670 ca         1 BSU      -0.085250
     16 C12         -0.9730    -0.6460    -2.8260 ca         1 BSU      -0.144000
     17 H22          1.6920    -0.1080     1.0510 hn         1 BSU       0.145500
     18 H23          1.7060     0.0830    -1.0260 hn         1 BSU       0.145500
     19 H41          2.0310    -0.8310     3.1780 ha         1 BSU       0.124500
     20 H31          1.3810    -0.7390     5.5400 ha         1 BSU       0.113500
     21 H21         -0.8060     0.2410     6.1990 ha         1 BSU       0.115000
     22 H11         -2.2980     1.1510     4.4450 ha         1 BSU       0.113500
     23 H61         -1.6480     1.0970     2.0950 ha         1 BSU       0.124500
     24 H161         2.0640     0.8220    -3.1510 ha         1 BSU       0.124500
     25 H151         1.4230     0.7500    -5.5160 ha         1 BSU       0.113500
     26 H141        -0.7740    -0.1960    -6.1890 ha         1 BSU       0.115000
     27 H131        -2.2860    -1.0940    -4.4450 ha         1 BSU       0.113500
     28 H121        -1.6460    -1.0600    -2.0920 ha         1 BSU       0.124500
@<TRIPOS>BOND
     1     1     2 1   
     2     1     5 1   
     3     1    17 1   
     4     2     3 1   
     5     2     4 2   
     6     3    11 1   
     7     3    18 1   
     8     5     6 ar  
     9     5    10 ar  
    10     6     7 ar  
    11     6    19 1   
    12     7     8 ar  
    13     7    20 1   
    14     8     9 ar  
    15     8    21 1   
    16     9    10 ar  
    17     9    22 1   
    18    10    23 1   
    19    11    12 ar  
    20    11    16 ar  
    21    12    13 ar  
    22    12    24 1   
    23    13    14 ar  
    24    13    25 1   
    25    14    15 ar  
    26    14    26 1   
    27    15    16 ar  
    28    15    27 1   
    29    16    28 1   
@<TRIPOS>SUBSTRUCTURE
     1 BSU         1 TEMP              0 ****  ****    0 ROOT
