@<TRIPOS>MOLECULE
BSU
   28    29     1     0     0
SMALL
No Charge or Current Charge


@<TRIPOS>ATOM
      1 N7           0.4830     0.0440     1.1540 ns         1 BSU      -0.166500
      2 C8          -0.2980     0.0130     0.0060 c          1 BSU       0.666100
      3 N9           0.4890    -0.0290    -1.1370 ns         1 BSU      -0.166500
      4 O11         -1.5240     0.0210     0.0020 o          1 BSU      -0.601100
      5 C5           0.1560     0.0900     2.5380 ca         1 BSU      -0.011500
      6 C4           1.2240     0.1090     3.4560 ca         1 BSU      -0.144000
      7 C3           0.9810     0.1550     4.8400 ca         1 BSU      -0.085250
      8 C2          -0.3370     0.1810     5.3200 ca         1 BSU      -0.133500
      9 C1          -1.4110     0.1610     4.4160 ca         1 BSU      -0.085250
     10 C6          -1.1680     0.1160     3.0320 ca         1 BSU      -0.144000
     11 C10          0.1710    -0.0700    -2.5230 ca         1 BSU      -0.011500
     12 C16          1.2440    -0.1080    -3.4350 ca         1 BSU      -0.144000
     13 C15          1.0100    -0.1500    -4.8200 ca         1 BSU      -0.085250
     14 C14         -0.3060    -0.1540    -5.3090 ca         1 BSU      -0.133500
     15 C13         -1.3850    -0.1170    -4.4110 ca         1 BSU      -0.085250
     16 C12         -1.1510    -0.0740    -3.0250 ca         1 BSU      -0.144000
     17 H22          1.4780     0.0310     0.9750 hn         1 BSU       0.145500
     18 H23          1.4840    -0.0300    -0.9520 hn         1 BSU       0.145500
     19 H41          2.2510     0.0900     3.0970 ha         1 BSU       0.124500
     20 H31          1.8150     0.1700     5.5390 ha         1 BSU       0.113500
     21 H21         -0.5270     0.2160     6.3910 ha         1 BSU       0.115000
     22 H11         -2.4330     0.1820     4.7880 ha         1 BSU       0.113500
     23 H61         -2.0230     0.1020     2.3640 ha         1 BSU       0.124500
     24 H161         2.2690    -0.1050    -3.0690 ha         1 BSU       0.124500
     25 H151         1.8480    -0.1790    -5.5130 ha         1 BSU       0.113500
     26 H141        -0.4890    -0.1870    -6.3810 ha         1 BSU       0.115000
     27 H131        -2.4050    -0.1200    -4.7890 ha         1 BSU       0.113500
     28 H121        -2.0100    -0.0460    -2.3630 ha         1 BSU       0.124500
@<TRIPOS>BOND
     1     1     2 1   
     2     1     5 1   
     3     1    17 1   
     4     2     3 1   
     5     2     4 2   
     6     3    11 1   
     7     3    18 1   
     8     5     6 ar  
     9     5    10 ar  
    10     6     7 ar  
    11     6    19 1   
    12     7     8 ar  
    13     7    20 1   
    14     8     9 ar  
    15     8    21 1   
    16     9    10 ar  
    17     9    22 1   
    18    10    23 1   
    19    11    12 ar  
    20    11    16 ar  
    21    12    13 ar  
    22    12    24 1   
    23    13    14 ar  
    24    13    25 1   
    25    14    15 ar  
    26    14    26 1   
    27    15    16 ar  
    28    15    27 1   
    29    16    28 1   
@<TRIPOS>SUBSTRUCTURE
     1 BSU         1 TEMP              0 ****  ****    0 ROOT
