@<TRIPOS>MOLECULE
BSW
   24    26     1     0     0
SMALL
No Charge or Current Charge


@<TRIPOS>ATOM
      1 C10          1.2030     0.4030     0.1350 cp         1 BSW      -0.039000
      2 C15          1.8270    -0.6520    -0.5790 ca         1 BSW       0.133000
      3 C01         -1.2090    -1.6350     0.5600 cc         1 BSW      -0.228200
      4 C02         -2.5100    -2.1010     0.6330 cd         1 BSW      -0.149100
      5 C04         -2.6070     0.0900     0.0870 ca         1 BSW       0.365500
      6 C05         -1.2710    -0.2440     0.2030 ca         1 BSW      -0.113800
      7 C06         -0.2510     0.7140     0.0120 cp         1 BSW       0.036000
      8 C07         -0.7030     2.0220    -0.2830 ca         1 BSW      -0.178000
      9 C08         -2.0820     2.2830    -0.3880 ca         1 BSW       0.354900
     10 C11          2.0430     1.1810     0.9690 ca         1 BSW      -0.128000
     11 C12          3.4130     0.8820     1.0750 ca         1 BSW       0.317900
     12 C14          3.2090    -0.8800    -0.4160 ca         1 BSW       0.297900
     13 F16          1.1220    -1.4210    -1.4420 f          1 BSW      -0.161000
     14 N03         -3.3810    -1.0280     0.3330 na         1 BSW      -0.325400
     15 N09         -3.0320     1.3330    -0.2070 nb         1 BSW      -0.674000
     16 N13          3.9990    -0.1330     0.3980 nb         1 BSW      -0.640000
     17 H2          -2.8750    -3.0990     0.8750 h4         1 BSW       0.217000
     18 H3           0.0080     2.8270    -0.4410 ha         1 BSW       0.125000
     19 H4          -2.4380     3.2860    -0.6220 h4         1 BSW       0.021100
     20 H5           1.6340     2.0090     1.5420 ha         1 BSW       0.131000
     21 H6           4.0610     1.4730     1.7200 h4         1 BSW       0.026100
     22 H7           3.7020    -1.6840    -0.9620 h4         1 BSW       0.037100
     23 H8          -4.3930    -1.0520     0.3060 hn         1 BSW       0.362000
     24 H1          -0.3170    -2.2290     0.7500 ha         1 BSW       0.212000
@<TRIPOS>BOND
     1     1     2 ar  
     2     1     7 1   
     3     1    10 ar  
     4     2    12 ar  
     5     2    13 1   
     6     3     4 2   
     7     3     6 1   
     8     3    24 1   
     9     4    14 1   
    10     4    17 1   
    11     5     6 ar  
    12     5    14 1   
    13     5    15 ar  
    14     6     7 ar  
    15     7     8 ar  
    16     8     9 ar  
    17     8    18 1   
    18     9    15 ar  
    19     9    19 1   
    20    10    11 ar  
    21    10    20 1   
    22    11    16 ar  
    23    11    21 1   
    24    12    16 ar  
    25    12    22 1   
    26    14    23 1   
@<TRIPOS>SUBSTRUCTURE
     1 BSW         1 TEMP              0 ****  ****    0 ROOT
