@<TRIPOS>MOLECULE
BSW
   24    26     1     0     0
SMALL
abcg2


@<TRIPOS>ATOM
      1 C10          1.2070     0.4090     0.1370 cp         1 BSW      -0.039000
      2 C15          1.8460    -0.6000    -0.5660 ca         1 BSW       0.133000
      3 C01         -1.2210    -1.6860     0.5610 cc         1 BSW      -0.228200
      4 C02         -2.5340    -2.0520     0.6320 cd         1 BSW      -0.149100
      5 C04         -2.5600     0.1020     0.0920 ca         1 BSW       0.365500
      6 C05         -1.2070    -0.3030     0.2110 ca         1 BSW      -0.113800
      7 C06         -0.2350     0.6810     0.0080 cp         1 BSW       0.036000
      8 C07         -0.6850     1.9610    -0.2870 ca         1 BSW      -0.178000
      9 C08         -2.0540     2.2230    -0.3850 ca         1 BSW       0.354900
     10 C11          2.0200     1.1750     0.9680 ca         1 BSW      -0.128000
     11 C12          3.3720     0.8900     1.0590 ca         1 BSW       0.317900
     12 C14          3.2030    -0.8230    -0.4270 ca         1 BSW       0.297900
     13 F16          1.1500    -1.3650    -1.4130 f          1 BSW      -0.161000
     14 N03         -3.3370    -0.9840     0.3470 na         1 BSW      -0.325400
     15 N09         -2.9990     1.3150    -0.2000 nb         1 BSW      -0.674000
     16 N13          3.9570    -0.0900     0.3800 nb         1 BSW      -0.640000
     17 H2          -2.9660    -3.0110     0.8680 h4         1 BSW       0.217000
     18 H3           0.0190     2.7640    -0.4580 ha         1 BSW       0.125000
     19 H4          -2.3870     3.2260    -0.6270 h4         1 BSW       0.021100
     20 H5           1.5950     1.9810     1.5510 ha         1 BSW       0.131000
     21 H6           4.0060     1.4760     1.7120 h4         1 BSW       0.026100
     22 H7           3.6840    -1.6150    -0.9920 h4         1 BSW       0.037100
     23 H8          -4.3430    -0.9960     0.3370 hn         1 BSW       0.362000
     24 H1          -0.3790    -2.3310     0.7500 ha         1 BSW       0.212000
@<TRIPOS>BOND
     1     1     2 ar  
     2     1     7 1   
     3     1    10 ar  
     4     2    12 ar  
     5     2    13 1   
     6     3     4 2   
     7     3     6 1   
     8     3    24 1   
     9     4    14 1   
    10     4    17 1   
    11     5     6 ar  
    12     5    14 1   
    13     5    15 ar  
    14     6     7 ar  
    15     7     8 ar  
    16     8     9 ar  
    17     8    18 1   
    18     9    15 ar  
    19     9    19 1   
    20    10    11 ar  
    21    10    20 1   
    22    11    16 ar  
    23    11    21 1   
    24    12    16 ar  
    25    12    22 1   
    26    14    23 1   
@<TRIPOS>SUBSTRUCTURE
     1 BSW         1 TEMP              0 ****  ****    0 ROOT
