@<TRIPOS>MOLECULE
BSX
   20    20     1     0     0
SMALL
No Charge or Current Charge


@<TRIPOS>ATOM
      1 C7          -2.1660     1.5010     0.1290 ca         1 BSX      -0.126000
      2 C9          -2.8110     0.2750     0.3660 ca         1 BSX      -0.086000
      3 C4          -0.8030     1.5280    -0.2160 ca         1 BSX      -0.086000
      4 C6          -2.0900    -0.9250     0.2570 ca         1 BSX      -0.151000
      5 C1          -0.0720     0.3280    -0.3280 ca         1 BSX      -0.116300
      6 C3          -0.7280    -0.8990    -0.0870 ca         1 BSX       0.171000
      7 C2           1.4090     0.3710    -0.7000 c3         1 BSX      -0.028100
      8 C5           2.3230     0.2320     0.5370 c3         1 BSX       0.150800
      9 N8           3.7550     0.2940     0.1770 n8         1 BSX      -0.996200
     10 F10         -0.0530    -2.0660    -0.1840 f          1 BSX      -0.180000
     11 H1          -2.7230     2.4320     0.2140 ha         1 BSX       0.117000
     12 H2          -3.8660     0.2560     0.6330 ha         1 BSX       0.117000
     13 H3          -0.3160     2.4850    -0.3940 ha         1 BSX       0.114000
     14 H4          -2.5820    -1.8770     0.4400 ha         1 BSX       0.131000
     15 H5           1.6420    -0.4310    -1.4120 hc         1 BSX       0.058700
     16 H6           1.6420     1.3110    -1.2140 hc         1 BSX       0.058700
     17 H7           2.1020     1.0390     1.2490 h1         1 BSX       0.032700
     18 H8           2.1260    -0.7290     1.0330 h1         1 BSX       0.032700
     19 H9           3.9670     1.2260    -0.1970 hn         1 BSX       0.392000
     20 H10          4.3170     0.2480     1.0360 hn         1 BSX       0.392000
@<TRIPOS>BOND
     1     1     2 ar  
     2     1     3 ar  
     3     1    11 1   
     4     2     4 ar  
     5     2    12 1   
     6     3     5 ar  
     7     3    13 1   
     8     4     6 ar  
     9     4    14 1   
    10     5     6 ar  
    11     5     7 1   
    12     6    10 1   
    13     7     8 1   
    14     7    15 1   
    15     7    16 1   
    16     8     9 1   
    17     8    17 1   
    18     8    18 1   
    19     9    19 1   
    20     9    20 1   
@<TRIPOS>SUBSTRUCTURE
     1 BSX         1 TEMP              0 ****  ****    0 ROOT
