@<TRIPOS>MOLECULE
BSX
   20    20     1     0     0
SMALL
abcg2


@<TRIPOS>ATOM
      1 C7          -2.1520     1.4850     0.1180 ca         1 BSX      -0.126000
      2 C9          -2.7750     0.2710     0.3690 ca         1 BSX      -0.086000
      3 C4          -0.8080     1.5130    -0.2320 ca         1 BSX      -0.086000
      4 C6          -2.0530    -0.9110     0.2710 ca         1 BSX      -0.151000
      5 C1          -0.0550     0.3460    -0.3400 ca         1 BSX      -0.116300
      6 C3          -0.7180    -0.8450    -0.0780 ca         1 BSX       0.171000
      7 C2           1.4050     0.3800    -0.6880 c3         1 BSX      -0.028100
      8 C5           2.3010     0.2510     0.5440 c3         1 BSX       0.150800
      9 N8           3.7020     0.2900     0.1550 n8         1 BSX      -0.996200
     10 F10         -0.0280    -1.9980    -0.1720 f          1 BSX      -0.180000
     11 H1          -2.7100     2.4090     0.1920 ha         1 BSX       0.117000
     12 H2          -3.8220     0.2370     0.6400 ha         1 BSX       0.117000
     13 H3          -0.3270     2.4620    -0.4340 ha         1 BSX       0.114000
     14 H4          -2.5180    -1.8690     0.4620 ha         1 BSX       0.131000
     15 H5           1.6570    -0.4120    -1.3960 hc         1 BSX       0.058700
     16 H6           1.6240     1.3270    -1.1880 hc         1 BSX       0.058700
     17 H7           2.0200     1.0290     1.2680 h1         1 BSX       0.032700
     18 H8           2.1090    -0.7070     1.0310 h1         1 BSX       0.032700
     19 H9           3.9380     1.2250    -0.1530 hn         1 BSX       0.392000
     20 H10          4.2800     0.1160     0.9670 hn         1 BSX       0.392000
@<TRIPOS>BOND
     1     1     2 ar  
     2     1     3 ar  
     3     1    11 1   
     4     2     4 ar  
     5     2    12 1   
     6     3     5 ar  
     7     3    13 1   
     8     4     6 ar  
     9     4    14 1   
    10     5     6 ar  
    11     5     7 1   
    12     6    10 1   
    13     7     8 1   
    14     7    15 1   
    15     7    16 1   
    16     8     9 1   
    17     8    17 1   
    18     8    18 1   
    19     9    19 1   
    20     9    20 1   
@<TRIPOS>SUBSTRUCTURE
     1 BSX         1 TEMP              0 ****  ****    0 ROOT
