@<TRIPOS>MOLECULE
BSY
    5     4     1     0     0
SMALL
No Charge or Current Charge


@<TRIPOS>ATOM
      1 O1          -0.7660    -1.1590    -0.2180 o          1 BSY      -0.457400
      2 O2           1.5320    -0.0210    -0.5550 oh         1 BSY      -0.643800
      3 O3          -0.6700     1.3330    -0.6340 o          1 BSY      -0.457400
      4 SE          -0.0400     0.1360     0.0230 s4         1 BSY       0.164600
      5 H2           2.1190     0.0860     0.2230 ho         1 BSY       0.395000
@<TRIPOS>BOND
     1     1     4 1   
     2     2     4 1   
     3     2     5 1   
     4     3     4 1   
@<TRIPOS>SUBSTRUCTURE
     1 BSY         1 TEMP              0 ****  ****    0 ROOT
