@<TRIPOS>MOLECULE
BSY
    5     4     1     0     0
SMALL
bcc


@<TRIPOS>ATOM
      1 O1          -0.8790    -1.1810    -0.5070 o          1 BSY      -0.457400
      2 O2           1.5390    -0.2660    -0.4310 oh         1 BSY      -0.604800
      3 O3          -0.5350     1.4450    -0.4610 o          1 BSY      -0.457400
      4 SE          -0.1280     0.0420     0.2610 s4         1 BSY       0.164600
      5 H2           2.1780     0.3340    -0.0220 ho         1 BSY       0.356000
@<TRIPOS>BOND
     1     1     4 1   
     2     2     4 1   
     3     2     5 1   
     4     3     4 1   
@<TRIPOS>SUBSTRUCTURE
     1 BSY         1 TEMP              0 ****  ****    0 ROOT
