@<TRIPOS>MOLECULE
BSZ
   19    19     1     0     0
SMALL
No Charge or Current Charge


@<TRIPOS>ATOM
      1 S            2.7750     0.0670     0.0460 s6         1 BSZ       1.265100
      2 Cl          -2.3890     2.0990    -0.0190 cl         1 BSZ      -0.232000
      3 CG           0.9500    -0.2090     0.0460 ca         1 BSZ      -0.248500
      4 CH          -3.8500    -2.0760     0.0190 c3         1 BSZ       0.154900
      5 OH          -3.2270    -0.7790     0.0100 os         1 BSZ      -0.337100
      6 CZ          -1.8530    -0.6170     0.0210 ca         1 BSZ       0.143100
      7 OB1          2.8930     1.3410     0.7710 o          1 BSZ      -0.692533
      8 OB2          3.2710    -1.1300     0.7410 o          1 BSZ      -0.692533
      9 CD1          0.4220    -1.5150     0.0480 ca         1 BSZ       0.013000
     10 CD2          0.0690     0.8910     0.0200 ca         1 BSZ       0.019000
     11 CE1         -0.9700    -1.7200     0.0380 ca         1 BSZ      -0.228000
     12 CE2         -1.3220     0.6910     0.0100 ca         1 BSZ       0.054000
     13 OXT          3.0510     0.1270    -1.3970 o          1 BSZ      -0.692533
     14 HH          -3.5550    -2.6560    -0.8650 h1         1 BSZ       0.033033
     15 HHA         -3.5700    -2.6360     0.9200 h1         1 BSZ       0.033033
     16 HHB         -4.9420    -1.9720     0.0090 h1         1 BSZ       0.033033
     17 HD1          1.0870    -2.3770     0.0550 ha         1 BSZ       0.132000
     18 HD2          0.4580     1.9070     0.0060 ha         1 BSZ       0.145000
     19 HE1         -1.3400    -2.7410     0.0420 ha         1 BSZ       0.100000
@<TRIPOS>BOND
     1     1     3 1   
     2     1     7 1   
     3     1     8 1   
     4     1    13 1   
     5     2    12 1   
     6     3     9 ar  
     7     3    10 ar  
     8     4     5 1   
     9     4    14 1   
    10     4    15 1   
    11     4    16 1   
    12     5     6 1   
    13     6    11 ar  
    14     6    12 ar  
    15     9    11 ar  
    16     9    17 1   
    17    10    12 ar  
    18    10    18 1   
    19    11    19 1   
@<TRIPOS>SUBSTRUCTURE
     1 BSZ         1 TEMP              0 ****  ****    0 ROOT
