@<TRIPOS>MOLECULE
BSZ
   19    19     1     0     0
SMALL
abcg2


@<TRIPOS>ATOM
      1 S            2.6740     0.0510     0.0190 s6         1 BSZ       1.265100
      2 CL          -2.4000     1.9990    -0.0400 cl         1 BSZ      -0.232000
      3 CG           0.9080    -0.2260     0.0750 ca         1 BSZ      -0.248500
      4 CH          -3.7720    -2.0360     0.0010 c3         1 BSZ       0.154900
      5 OH          -3.1920    -0.7430    -0.0070 os         1 BSZ      -0.337100
      6 CZ          -1.8600    -0.6440     0.0190 ca         1 BSZ       0.143100
      7 OB1          2.8980     1.2960     0.7740 o          1 BSZ      -0.692533
      8 OB2          3.2810    -1.1350     0.6470 o          1 BSZ      -0.692533
      9 CD1          0.3920    -1.5110     0.0900 ca         1 BSZ       0.013000
     10 CD2          0.0430     0.8610     0.0330 ca         1 BSZ       0.019000
     11 CE1         -0.9800    -1.7220     0.0640 ca         1 BSZ      -0.228000
     12 CE2         -1.3200     0.6490     0.0060 ca         1 BSZ       0.054000
     13 OXT          2.9900     0.1780    -1.4130 o          1 BSZ      -0.692533
     14 HH          -3.4750    -2.6170    -0.8750 h1         1 BSZ       0.033033
     15 HHA         -3.5070    -2.5910     0.9040 h1         1 BSZ       0.033033
     16 HHB         -4.8480    -1.8880    -0.0210 h1         1 BSZ       0.033033
     17 HD1          1.0520    -2.3660     0.1310 ha         1 BSZ       0.132000
     18 HD2          0.4240     1.8740     0.0310 ha         1 BSZ       0.145000
     19 HE1         -1.3510    -2.7370     0.0820 ha         1 BSZ       0.100000
@<TRIPOS>BOND
     1     1     3 1   
     2     1     7 1   
     3     1     8 1   
     4     1    13 1   
     5     2    12 1   
     6     3     9 ar  
     7     3    10 ar  
     8     4     5 1   
     9     4    14 1   
    10     4    15 1   
    11     4    16 1   
    12     5     6 1   
    13     6    11 ar  
    14     6    12 ar  
    15     9    11 ar  
    16     9    17 1   
    17    10    12 ar  
    18    10    18 1   
    19    11    19 1   
@<TRIPOS>SUBSTRUCTURE
     1 BSZ         1 TEMP              0 ****  ****    0 ROOT
