@<TRIPOS>MOLECULE
BT1
   74    79     1     0     0
SMALL
bcc


@<TRIPOS>ATOM
      1 C1          -7.7090     0.6170    -1.7360 ca         1 BT1      -0.118000
      2 C2          -7.0070     1.2080    -0.7040 ca         1 BT1      -0.099000
      3 C3          -5.7240     0.7400    -0.4330 ca         1 BT1      -0.044100
      4 C4          -5.1330    -0.3000    -1.1700 ca         1 BT1      -0.042800
      5 C5          -5.8660    -0.8770    -2.2150 ca         1 BT1      -0.083000
      6 C6          -7.1390    -0.4180    -2.4860 ca         1 BT1      -0.130000
      7 S1          -4.6630     1.3140     0.8090 ss         1 BT1      -0.044500
      8 C8          -3.4120     0.2110     0.3320 cc         1 BT1       0.057400
      9 C9          -3.7880    -0.5710    -0.7250 cd         1 BT1      -0.162400
     10 C7          -2.9350    -1.6080    -1.3530 c          1 BT1       0.623900
     11 C10         -2.1650     0.1880     1.0930 ca         1 BT1      -0.095800
     12 C12         -1.5000     1.3730     1.4190 ca         1 BT1      -0.065000
     13 C14         -0.2990     1.3500     2.0940 ca         1 BT1      -0.195500
     14 C16          0.2760     0.1330     2.4720 ca         1 BT1       0.164100
     15 C18         -0.3880    -1.0560     2.1720 ca         1 BT1      -0.195500
     16 C20         -1.5950    -1.0170     1.4930 ca         1 BT1      -0.065000
     17 O2           1.4520     0.2060     3.1110 os         1 BT1      -0.326900
     18 C24          2.0660    -0.9860     3.5790 c3         1 BT1       0.138400
     19 C11         -0.5890    -2.3120    -1.8220 ca         1 BT1      -0.015000
     20 C13         -1.5300    -1.2850    -1.6630 ca         1 BT1      -0.332900
     21 C15         -1.0870     0.0150    -1.8550 ca         1 BT1       0.502200
     22 N1           0.1660     0.3300    -2.1570 nb         1 BT1      -0.768000
     23 C19          1.0450    -0.6470    -2.2660 ca         1 BT1       0.680600
     24 C21          0.7130    -2.0030    -2.1150 ca         1 BT1      -0.290300
     25 O3           2.3120    -0.3640    -2.5340 os         1 BT1      -0.444100
     26 C25          2.6970     1.0010    -2.7090 c3         1 BT1       0.147400
     27 C17          5.1080    -0.7850    -6.0870 c5         1 BT1      -0.079900
     28 C23          6.1410     0.3600    -6.0430 c5         1 BT1      -0.079900
     29 C26          5.9190     1.0080    -4.6780 c5         1 BT1       0.160300
     30 N2           4.5270     0.7190    -4.3760 n3         1 BT1      -0.719600
     31 C27          4.3530    -0.6740    -4.7590 c5         1 BT1       0.160300
     32 C22          4.4270    -0.0170     6.3610 c5         1 BT1       0.158800
     33 N3           3.1660    -0.1400     5.6470 n3         1 BT1      -0.719600
     34 C28          2.5490     1.1720     5.7660 c5         1 BT1       0.158800
     35 C29          2.7850     1.5430     7.2290 c5         1 BT1      -0.080400
     36 C30          4.0800     0.7970     7.6090 c5         1 BT1      -0.080400
     37 C33          4.1770     1.0580    -3.0170 c3         1 BT1       0.167800
     38 C34          3.3480    -0.6410     4.3050 c3         1 BT1       0.170800
     39 O1          -3.4000    -2.6990    -1.6280 o          1 BT1      -0.526100
     40 H1          -8.7100     0.9590    -1.9660 ha         1 BT1       0.132000
     41 H2          -7.4410     2.0100    -0.1230 ha         1 BT1       0.139000
     42 H5          -5.4460    -1.6800    -2.8040 ha         1 BT1       0.150000
     43 H6          -7.7060    -0.8660    -3.2910 ha         1 BT1       0.134000
     44 H12         -1.9120     2.3290     1.1170 ha         1 BT1       0.139000
     45 H14          0.2120     2.2760     2.3270 ha         1 BT1       0.143000
     46 H18          0.0130    -2.0180     2.4600 ha         1 BT1       0.143000
     47 H20         -2.1040    -1.9510     1.2890 ha         1 BT1       0.139000
     48 H241         1.3920    -1.5310     4.2490 h1         1 BT1       0.045700
     49 H242         2.3010    -1.6400     2.7320 h1         1 BT1       0.045700
     50 H11         -0.8830    -3.3450    -1.6910 ha         1 BT1       0.153000
     51 H15         -1.7790     0.8470    -1.7850 h4         1 BT1       0.029100
     52 H21          1.4690    -2.7680    -2.2240 ha         1 BT1       0.156000
     53 H251         2.1200     1.4600    -3.5150 h1         1 BT1       0.060700
     54 H252         2.4950     1.5580    -1.7920 h1         1 BT1       0.060700
     55 H172         5.5740    -1.7640    -6.1950 hc         1 BT1       0.046200
     56 H231         5.9590     1.0770    -6.8440 hc         1 BT1       0.046200
     57 H232         7.1650     0.0070    -6.1550 hc         1 BT1       0.046200
     58 H261         6.1030     2.0850    -4.6760 h1         1 BT1       0.037200
     59 H262         6.5960     0.5590    -3.9310 h1         1 BT1       0.037200
     60 H271         4.7940    -1.3550    -4.0120 h1         1 BT1       0.037200
     61 H272         3.3000    -0.9370    -4.8580 h1         1 BT1       0.037200
     62 H221         4.8410    -1.0020     6.5900 h1         1 BT1       0.038200
     63 H222         5.1780     0.5190     5.7570 h1         1 BT1       0.038200
     64 H281         3.0300     1.9080     5.0990 h1         1 BT1       0.038200
     65 H282         1.4900     1.1460     5.5100 h1         1 BT1       0.038200
     66 H291         1.9520     1.2030     7.8460 hc         1 BT1       0.046700
     67 H292         2.8640     2.6220     7.3610 hc         1 BT1       0.046700
     68 H301         3.9180     0.1460     8.4690 hc         1 BT1       0.046700
     69 H302         4.8900     1.4770     7.8710 hc         1 BT1       0.046700
     70 H331         4.4810     2.0940    -2.8470 h1         1 BT1       0.041200
     71 H332         4.7270     0.4520    -2.2760 h1         1 BT1       0.041200
     72 H341         3.9220    -1.5690     4.3710 h1         1 BT1       0.042200
     73 H342         3.9450     0.0460     3.6790 h1         1 BT1       0.042200
     74 H171         4.4280    -0.6600    -6.9300 hc         1 BT1       0.046200
@<TRIPOS>BOND
     1     1     2 ar  
     2     1     6 ar  
     3     1    40 1   
     4     2     3 ar  
     5     2    41 1   
     6     3     4 ar  
     7     3     7 1   
     8     4     5 ar  
     9     4     9 1   
    10     5     6 ar  
    11     5    42 1   
    12     6    43 1   
    13     7     8 1   
    14     8     9 2   
    15     8    11 1   
    16     9    10 1   
    17    10    20 1   
    18    10    39 2   
    19    11    12 ar  
    20    11    16 ar  
    21    12    13 ar  
    22    12    44 1   
    23    13    14 ar  
    24    13    45 1   
    25    14    15 ar  
    26    14    17 1   
    27    15    16 ar  
    28    15    46 1   
    29    16    47 1   
    30    17    18 1   
    31    18    38 1   
    32    18    48 1   
    33    18    49 1   
    34    19    20 ar  
    35    19    24 ar  
    36    19    50 1   
    37    20    21 ar  
    38    21    22 ar  
    39    21    51 1   
    40    22    23 ar  
    41    23    24 ar  
    42    23    25 1   
    43    24    52 1   
    44    25    26 1   
    45    26    37 1   
    46    26    53 1   
    47    26    54 1   
    48    27    28 1   
    49    27    31 1   
    50    27    55 1   
    51    27    74 1   
    52    28    29 1   
    53    28    56 1   
    54    28    57 1   
    55    29    30 1   
    56    29    58 1   
    57    29    59 1   
    58    30    31 1   
    59    30    37 1   
    60    31    60 1   
    61    31    61 1   
    62    32    33 1   
    63    32    36 1   
    64    32    62 1   
    65    32    63 1   
    66    33    34 1   
    67    33    38 1   
    68    34    35 1   
    69    34    64 1   
    70    34    65 1   
    71    35    36 1   
    72    35    66 1   
    73    35    67 1   
    74    36    68 1   
    75    36    69 1   
    76    37    70 1   
    77    37    71 1   
    78    38    72 1   
    79    38    73 1   
@<TRIPOS>SUBSTRUCTURE
     1 BT1         1 TEMP              0 ****  ****    0 ROOT
