@<TRIPOS>MOLECULE
BT1
   74    79     1     0     0
SMALL
No Charge or Current Charge


@<TRIPOS>ATOM
      1 C1          -8.6320     0.1240    -1.0760 ca         1 BT1      -0.100000
      2 C2          -7.8050     0.7030    -0.0980 ca         1 BT1      -0.081000
      3 C3          -6.4220     0.4710    -0.1520 ca         1 BT1      -0.171000
      4 C4          -5.8510    -0.3140    -1.1430 ca         1 BT1      -0.042800
      5 C5          -6.6760    -0.8890    -2.1360 ca         1 BT1      -0.065000
      6 C6          -8.0670    -0.6680    -2.0940 ca         1 BT1      -0.112000
      7 S1          -5.2610     1.1670     1.0000 ss         1 BT1       0.082400
      8 C8          -3.9570     0.3160     0.1430 cc         1 BT1       0.057400
      9 C9          -4.3920    -0.3980    -0.9810 cd         1 BT1      -0.162400
     10 C7          -3.5030    -1.1920    -1.9120 c          1 BT1       0.623900
     11 C10         -2.5990     0.2830     0.6780 ca         1 BT1      -0.095800
     12 C12         -1.8610     1.4770     0.7740 ca         1 BT1      -0.047000
     13 C14         -0.5370     1.4550     1.2430 ca         1 BT1      -0.177500
     14 C16          0.0590     0.2450     1.6290 ca         1 BT1       0.164100
     15 C18         -0.6980    -0.9460     1.5950 ca         1 BT1      -0.177500
     16 C20         -2.0270    -0.9220     1.1340 ca         1 BT1      -0.047000
     17 O2           1.3810     0.2760     2.0160 os         1 BT1      -0.350100
     18 C24          2.1380    -0.9280     2.2510 c3         1 BT1       0.161600
     19 C11         -1.1690    -2.1140    -1.6820 ca         1 BT1       0.003000
     20 C13         -2.0230    -1.0190    -1.8880 ca         1 BT1      -0.267600
     21 C15         -1.4660     0.2450    -2.1160 ca         1 BT1       0.436900
     22 N1          -0.1360     0.4810    -2.0760 nb         1 BT1      -0.768000
     23 C19          0.6800    -0.5590    -1.8030 ca         1 BT1       0.615300
     24 C21          0.2080    -1.8660    -1.6310 ca         1 BT1      -0.207000
     25 O3           2.0310    -0.3530    -1.6830 os         1 BT1      -0.467300
     26 C25          2.5680     0.9820    -1.5700 c3         1 BT1       0.170600
     27 C17          5.8530    -0.7410    -4.2310 c5         1 BT1      -0.079900
     28 C23          6.9350     0.2360    -3.6720 c5         1 BT1      -0.079900
     29 C26          6.3940     0.6110    -2.2700 c5         1 BT1       0.160300
     30 N2           4.9400     0.6130    -2.5200 n3         1 BT1      -0.719600
     31 C27          4.7180    -0.6980    -3.1700 c5         1 BT1       0.160300
     32 C22          5.2940     0.2300     4.2400 c5         1 BT1       0.158800
     33 N3           3.8760    -0.0560     3.9460 n3         1 BT1      -0.719600
     34 C28          3.2020     1.2060     4.3270 c5         1 BT1       0.158800
     35 C29          3.8300     1.5130     5.7150 c5         1 BT1      -0.080400
     36 C30          5.1940     0.7540     5.6940 c5         1 BT1      -0.080400
     37 C33          4.1000     0.9040    -1.3260 c3         1 BT1       0.167800
     38 C34          3.6110    -0.5520     2.5670 c3         1 BT1       0.170800
     39 O1          -3.9520    -1.9840    -2.7280 o          1 BT1      -0.526100
     40 H1          -9.7060     0.2920    -1.0490 ha         1 BT1       0.114000
     41 H2          -8.2330     1.3240     0.6870 ha         1 BT1       0.121000
     42 H5          -6.2750    -1.4960    -2.9400 ha         1 BT1       0.132000
     43 H6          -8.7070    -1.1100    -2.8540 ha         1 BT1       0.116000
     44 H12         -2.3030     2.4190     0.4530 ha         1 BT1       0.121000
     45 H14          0.0390     2.3750     1.2820 ha         1 BT1       0.125000
     46 H18         -0.2730    -1.8940     1.9080 ha         1 BT1       0.125000
     47 H20         -2.6020    -1.8440     1.1000 ha         1 BT1       0.121000
     48 H241         1.7200    -1.5060     3.0850 h1         1 BT1       0.045700
     49 H242         2.1260    -1.5570     1.3520 h1         1 BT1       0.045700
     50 H11         -1.5620    -3.1190    -1.5310 ha         1 BT1       0.135000
     51 H15         -2.1020     1.1070    -2.3160 h4         1 BT1       0.029100
     52 H21          0.9100    -2.6700    -1.4350 ha         1 BT1       0.138000
     53 H251         2.3710     1.5730    -2.4740 h1         1 BT1       0.060700
     54 H252         2.1090     1.4990    -0.7170 h1         1 BT1       0.060700
     55 H172         6.2380    -1.7580    -4.3610 hc         1 BT1       0.046200
     56 H231         7.0200     1.1260    -4.3060 hc         1 BT1       0.046200
     57 H232         7.9300    -0.2210    -3.6200 hc         1 BT1       0.046200
     58 H261         6.7670     1.5880    -1.9320 h1         1 BT1       0.037200
     59 H262         6.6730    -0.1430    -1.5190 h1         1 BT1       0.037200
     60 H271         4.8240    -1.5210    -2.4480 h1         1 BT1       0.037200
     61 H272         3.7260    -0.7800    -3.6350 h1         1 BT1       0.037200
     62 H221         5.9300    -0.6630     4.1660 h1         1 BT1       0.038200
     63 H222         5.6990     0.9980     3.5650 h1         1 BT1       0.038200
     64 H281         3.4270     2.0080     3.6080 h1         1 BT1       0.038200
     65 H282         2.1110     1.1030     4.3910 h1         1 BT1       0.038200
     66 H291         3.1930     1.1450     6.5270 hc         1 BT1       0.046700
     67 H292         3.9550     2.5910     5.8660 hc         1 BT1       0.046700
     68 H301         5.1870    -0.0790     6.4070 hc         1 BT1       0.046700
     69 H302         6.0400     1.3980     5.9570 hc         1 BT1       0.046700
     70 H331         4.4070     1.8740    -0.9110 h1         1 BT1       0.041200
     71 H332         4.2870     0.1570    -0.5420 h1         1 BT1       0.041200
     72 H341         4.2140    -1.4540     2.3990 h1         1 BT1       0.042200
     73 H342         3.9450     0.1890     1.8290 h1         1 BT1       0.042200
     74 H171         5.4930    -0.4050    -5.2100 hc         1 BT1       0.046200
@<TRIPOS>BOND
     1     1     2 ar  
     2     1     6 ar  
     3     1    40 1   
     4     2     3 ar  
     5     2    41 1   
     6     3     4 ar  
     7     3     7 1   
     8     4     5 ar  
     9     4     9 1   
    10     5     6 ar  
    11     5    42 1   
    12     6    43 1   
    13     7     8 1   
    14     8     9 2   
    15     8    11 1   
    16     9    10 1   
    17    10    20 1   
    18    10    39 2   
    19    11    12 ar  
    20    11    16 ar  
    21    12    13 ar  
    22    12    44 1   
    23    13    14 ar  
    24    13    45 1   
    25    14    15 ar  
    26    14    17 1   
    27    15    16 ar  
    28    15    46 1   
    29    16    47 1   
    30    17    18 1   
    31    18    38 1   
    32    18    48 1   
    33    18    49 1   
    34    19    20 ar  
    35    19    24 ar  
    36    19    50 1   
    37    20    21 ar  
    38    21    22 ar  
    39    21    51 1   
    40    22    23 ar  
    41    23    24 ar  
    42    23    25 1   
    43    24    52 1   
    44    25    26 1   
    45    26    37 1   
    46    26    53 1   
    47    26    54 1   
    48    27    28 1   
    49    27    31 1   
    50    27    55 1   
    51    27    74 1   
    52    28    29 1   
    53    28    56 1   
    54    28    57 1   
    55    29    30 1   
    56    29    58 1   
    57    29    59 1   
    58    30    31 1   
    59    30    37 1   
    60    31    60 1   
    61    31    61 1   
    62    32    33 1   
    63    32    36 1   
    64    32    62 1   
    65    32    63 1   
    66    33    34 1   
    67    33    38 1   
    68    34    35 1   
    69    34    64 1   
    70    34    65 1   
    71    35    36 1   
    72    35    66 1   
    73    35    67 1   
    74    36    68 1   
    75    36    69 1   
    76    37    70 1   
    77    37    71 1   
    78    38    72 1   
    79    38    73 1   
@<TRIPOS>SUBSTRUCTURE
     1 BT1         1 TEMP              0 ****  ****    0 ROOT
