@<TRIPOS>MOLECULE
BT2
   76    81     1     0     0
SMALL
No Charge or Current Charge


@<TRIPOS>ATOM
      1 C1          -7.6100    -0.3200     1.8610 ca         1 BT2      -0.103000
      2 C2          -6.9870    -0.9280     0.7550 ca         1 BT2      -0.080000
      3 C3          -5.7430    -0.4410     0.3250 ca         1 BT2      -0.161000
      4 C4          -5.1250     0.6190     0.9680 ca         1 BT2      -0.062800
      5 C5          -5.7340     1.2330     2.0800 ca         1 BT2      -0.075000
      6 C6          -6.9840     0.7570     2.5230 ca         1 BT2      -0.117000
      7 S1          -4.8180    -1.1020    -1.0470 ss         1 BT2       0.059400
      8 C8          -3.5690     0.1230    -0.7320 cc         1 BT2       0.022400
      9 C9          -3.8430     0.9440     0.3540 cd         1 BT2      -0.060400
     10 C7          -2.8870     1.9990     0.8790 c3         1 BT2       0.039100
     11 C10         -2.2910     0.1900    -1.4330 ca         1 BT2      -0.076800
     12 C12         -1.3470    -0.8390    -1.2670 ca         1 BT2      -0.054500
     13 C14         -0.1040    -0.7700    -1.9190 ca         1 BT2      -0.179000
     14 C16          0.2050     0.3220    -2.7450 ca         1 BT2       0.154100
     15 C18         -0.7450     1.3510    -2.9230 ca         1 BT2      -0.179000
     16 C20         -1.9880     1.2810    -2.2700 ca         1 BT2      -0.054500
     17 O2           1.4420     0.3370    -3.3550 os         1 BT2      -0.350100
     18 C24          1.8570     1.4100    -4.2260 c3         1 BT2       0.162600
     19 C11         -1.6980     0.5460     2.5880 ca         1 BT2      -0.064500
     20 C13         -1.6160     1.4090     1.4790 ca         1 BT2      -0.118300
     21 C15         -0.3560     1.6990     0.9200 ca         1 BT2      -0.064500
     22 C32          0.8070     1.1290     1.4640 ca         1 BT2      -0.175500
     23 C19          0.7270     0.2670     2.5690 ca         1 BT2       0.144100
     24 C21         -0.5340    -0.0240     3.1340 ca         1 BT2      -0.175500
     25 O3           1.9030    -0.2650     3.0580 os         1 BT2      -0.328100
     26 C25          1.9290    -1.1600     4.1880 c3         1 BT2       0.165600
     27 C17          5.1800     1.2140     6.2790 c5         1 BT2      -0.078900
     28 C23          6.3480     0.4810     5.5460 c5         1 BT2      -0.078900
     29 C26          5.7170    -0.8610     5.0940 c5         1 BT2       0.157300
     30 N2           4.3140    -0.4630     4.8730 n3         1 BT2      -0.704600
     31 C27          3.9740     0.2480     6.1240 c5         1 BT2       0.157300
     32 C22          4.7510    -0.0900    -6.3810 c5         1 BT2       0.159800
     33 N3           3.3890     0.1180    -5.8520 n3         1 BT2      -0.720600
     34 C28          2.9500    -1.2580    -5.5260 c5         1 BT2       0.159800
     35 C29          3.3510    -2.0470    -6.8040 c5         1 BT2      -0.079900
     36 C30          4.4920    -1.1900    -7.4400 c5         1 BT2      -0.079900
     37 C33          3.3980    -1.5690     4.4800 c3         1 BT2       0.171800
     38 C34          3.2890     1.1190    -4.7520 c3         1 BT2       0.171800
     39 H1          -8.5740    -0.6840     2.2080 ha         1 BT2       0.112000
     40 H2          -7.4630    -1.7610     0.2420 ha         1 BT2       0.120000
     41 H5          -5.2620     2.0610     2.6000 ha         1 BT2       0.114000
     42 H6          -7.4670     1.2210     3.3790 ha         1 BT2       0.112000
     43 H71         -3.3730     2.6280     1.6300 hc         1 BT2       0.052700
     44 H72         -2.6360     2.6920     0.0680 hc         1 BT2       0.052700
     45 H12         -1.5720    -1.6840    -0.6200 ha         1 BT2       0.120500
     46 H14          0.6250    -1.5630    -1.7800 ha         1 BT2       0.124000
     47 H18         -0.5390     2.2070    -3.5580 ha         1 BT2       0.124000
     48 H20         -2.7170     2.0770    -2.4090 ha         1 BT2       0.120500
     49 H241         1.1720     1.5190    -5.0760 h1         1 BT2       0.044200
     50 H242         1.8750     2.3570    -3.6710 h1         1 BT2       0.044200
     51 H11         -2.6660     0.3110     3.0240 ha         1 BT2       0.112500
     52 H15         -0.2770     2.3580     0.0580 ha         1 BT2       0.112500
     53 H32          1.7750     1.3530     1.0250 ha         1 BT2       0.120000
     54 H21         -0.6310    -0.6870     3.9880 ha         1 BT2       0.120000
     55 H251         1.3490    -2.0660     3.9690 h1         1 BT2       0.033200
     56 H252         1.4950    -0.6820     5.0750 h1         1 BT2       0.033200
     57 H172         4.9710     2.1810     5.8080 hc         1 BT2       0.046950
     58 H231         6.6900     1.0620     4.6820 hc         1 BT2       0.046950
     59 H232         7.2180     0.3240     6.1940 hc         1 BT2       0.046950
     60 H261         6.1920    -1.2560     4.1860 h1         1 BT2       0.034200
     61 H262         5.7970    -1.6230     5.8830 h1         1 BT2       0.034200
     62 H271         3.9130    -0.4480     6.9730 h1         1 BT2       0.034200
     63 H272         3.0210     0.7920     6.0590 h1         1 BT2       0.034200
     64 H221         5.1760     0.8200    -6.8270 h1         1 BT2       0.038450
     65 H222         5.4380    -0.4420    -5.5980 h1         1 BT2       0.038450
     66 H281         3.4810    -1.6440    -4.6440 h1         1 BT2       0.038450
     67 H282         1.8710    -1.3260    -5.3310 h1         1 BT2       0.038450
     68 H291         2.5040    -2.1410    -7.4930 hc         1 BT2       0.046200
     69 H292         3.6810    -3.0620    -6.5580 hc         1 BT2       0.046200
     70 H301         4.1640    -0.7480    -8.3870 hc         1 BT2       0.046200
     71 H302         5.3930    -1.7770    -7.6500 hc         1 BT2       0.046200
     72 H331         3.7900    -2.0640     3.5820 h1         1 BT2       0.039700
     73 H332         3.3810    -2.3270     5.2750 h1         1 BT2       0.039700
     74 H341         3.6970     2.0730    -5.1120 h1         1 BT2       0.041700
     75 H342         3.9150     0.8120    -3.9030 h1         1 BT2       0.041700
     76 H171         5.4040     1.4100     7.3340 hc         1 BT2       0.046950
@<TRIPOS>BOND
     1     1     2 ar  
     2     1     6 ar  
     3     1    39 1   
     4     2     3 ar  
     5     2    40 1   
     6     3     4 ar  
     7     3     7 1   
     8     4     5 ar  
     9     4     9 1   
    10     5     6 ar  
    11     5    41 1   
    12     6    42 1   
    13     7     8 1   
    14     8     9 2   
    15     8    11 1   
    16     9    10 1   
    17    10    20 1   
    18    10    43 1   
    19    10    44 1   
    20    11    12 ar  
    21    11    16 ar  
    22    12    13 ar  
    23    12    45 1   
    24    13    14 ar  
    25    13    46 1   
    26    14    15 ar  
    27    14    17 1   
    28    15    16 ar  
    29    15    47 1   
    30    16    48 1   
    31    17    18 1   
    32    18    38 1   
    33    18    49 1   
    34    18    50 1   
    35    19    20 ar  
    36    19    24 ar  
    37    19    51 1   
    38    20    21 ar  
    39    21    22 ar  
    40    21    52 1   
    41    22    23 ar  
    42    22    53 1   
    43    23    24 ar  
    44    23    25 1   
    45    24    54 1   
    46    25    26 1   
    47    26    37 1   
    48    26    55 1   
    49    26    56 1   
    50    27    28 1   
    51    27    31 1   
    52    27    57 1   
    53    27    76 1   
    54    28    29 1   
    55    28    58 1   
    56    28    59 1   
    57    29    30 1   
    58    29    60 1   
    59    29    61 1   
    60    30    31 1   
    61    30    37 1   
    62    31    62 1   
    63    31    63 1   
    64    32    33 1   
    65    32    36 1   
    66    32    64 1   
    67    32    65 1   
    68    33    34 1   
    69    33    38 1   
    70    34    35 1   
    71    34    66 1   
    72    34    67 1   
    73    35    36 1   
    74    35    68 1   
    75    35    69 1   
    76    36    70 1   
    77    36    71 1   
    78    37    72 1   
    79    37    73 1   
    80    38    74 1   
    81    38    75 1   
@<TRIPOS>SUBSTRUCTURE
     1 BT2         1 TEMP              0 ****  ****    0 ROOT
