@<TRIPOS>MOLECULE
BT2
   76    81     1     0     0
SMALL
bcc


@<TRIPOS>ATOM
      1 C1          -7.0190    -0.6200     1.9150 ca         1 BT2      -0.121000
      2 C2          -6.4470    -1.1850     0.7910 ca         1 BT2      -0.098000
      3 C3          -5.2500    -0.6510     0.3210 ca         1 BT2      -0.034100
      4 C4          -4.6190     0.4350     0.9520 ca         1 BT2      -0.062800
      5 C5          -5.2230     0.9900     2.0870 ca         1 BT2      -0.093000
      6 C6          -6.4090     0.4640     2.5580 ca         1 BT2      -0.135000
      7 S1          -4.3500    -1.1750    -1.0600 ss         1 BT2      -0.067500
      8 C8          -3.1340     0.0450    -0.7900 cc         1 BT2       0.022400
      9 C9          -3.3930     0.8180     0.2980 cd         1 BT2      -0.060400
     10 C7          -2.4620     1.8690     0.8410 c3         1 BT2       0.039100
     11 C10         -1.9720     0.1010    -1.6850 ca         1 BT2      -0.076800
     12 C12         -1.1190    -0.9970    -1.8170 ca         1 BT2      -0.072500
     13 C14          0.0120    -0.9290    -2.6060 ca         1 BT2      -0.197000
     14 C16          0.3250     0.2480    -3.2910 ca         1 BT2       0.154100
     15 C18         -0.5320     1.3430    -3.1890 ca         1 BT2      -0.197000
     16 C20         -1.6660     1.2580    -2.3930 ca         1 BT2      -0.072500
     17 O2           1.4580     0.2330    -4.0120 os         1 BT2      -0.326900
     18 C24          1.8140     1.3850    -4.7620 c3         1 BT2       0.139400
     19 C11         -1.5930     1.0420     3.0660 ca         1 BT2      -0.082500
     20 C13         -1.3890     1.2610     1.7100 ca         1 BT2      -0.118300
     21 C15         -0.1640     0.8690     1.1680 ca         1 BT2      -0.082500
     22 C32          0.8120     0.2780     1.9500 ca         1 BT2      -0.193500
     23 C19          0.5910     0.0600     3.3110 ca         1 BT2       0.144100
     24 C21         -0.6240     0.4490     3.8690 ca         1 BT2      -0.193500
     25 O3           1.5970    -0.5170     3.9960 os         1 BT2      -0.304900
     26 C25          1.4470    -0.7190     5.3890 c3         1 BT2       0.142400
     27 C17          5.3400     1.2460     6.3150 c5         1 BT2      -0.078900
     28 C23          6.1570    -0.0320     6.0340 c5         1 BT2      -0.078900
     29 C26          5.1250    -1.1540     6.1110 c5         1 BT2       0.157300
     30 N2           3.8890    -0.5070     5.7090 n3         1 BT2      -0.704600
     31 C27          3.8900     0.7620     6.4170 c5         1 BT2       0.157300
     32 C22          4.3150     0.3230    -7.3830 c5         1 BT2       0.159800
     33 N3           3.0710     0.3130    -6.6280 n3         1 BT2      -0.720600
     34 C28          2.7900    -1.0960    -6.4010 c5         1 BT2       0.159800
     35 C29          3.1010    -1.7440    -7.7500 c5         1 BT2      -0.079900
     36 C30          4.1580    -0.8200    -8.3880 c5         1 BT2      -0.079900
     37 C33          2.7220    -1.3240     5.9310 c3         1 BT2       0.171800
     38 C34          3.1390     1.1490    -5.4530 c3         1 BT2       0.171800
     39 H1          -7.9490    -1.0180     2.2990 ha         1 BT2       0.130000
     40 H2          -6.9180    -2.0200     0.2900 ha         1 BT2       0.138000
     41 H5          -4.7710     1.8330     2.5940 ha         1 BT2       0.132000
     42 H6          -6.8760     0.8960     3.4330 ha         1 BT2       0.130000
     43 H71         -3.0350     2.6030     1.4120 hc         1 BT2       0.052700
     44 H72         -2.0000     2.4250     0.0250 hc         1 BT2       0.052700
     45 H12         -1.3320    -1.9120    -1.2780 ha         1 BT2       0.138500
     46 H14          0.6710    -1.7840    -2.6890 ha         1 BT2       0.142000
     47 H18         -0.3380     2.2640    -3.7210 ha         1 BT2       0.142000
     48 H20         -2.3240     2.1160    -2.3330 ha         1 BT2       0.138500
     49 H241         1.0410     1.6150    -5.5030 h1         1 BT2       0.044200
     50 H242         1.9120     2.2480    -4.0960 h1         1 BT2       0.044200
     51 H11         -2.5270     1.3410     3.5250 ha         1 BT2       0.130500
     52 H15          0.0350     1.0290     0.1160 ha         1 BT2       0.130500
     53 H32          1.7580    -0.0170     1.5110 ha         1 BT2       0.138000
     54 H21         -0.8370     0.3060     4.9200 ha         1 BT2       0.138000
     55 H251         0.6160    -1.4020     5.5970 h1         1 BT2       0.033200
     56 H252         1.2190     0.2280     5.8910 h1         1 BT2       0.033200
     57 H172         5.4560     1.9670     5.5050 hc         1 BT2       0.046950
     58 H231         6.6050     0.0090     5.0400 hc         1 BT2       0.046950
     59 H232         6.9670    -0.1810     6.7480 hc         1 BT2       0.046950
     60 H261         5.3550    -2.0000     5.4600 h1         1 BT2       0.034200
     61 H262         5.0640    -1.5420     7.1430 h1         1 BT2       0.034200
     62 H271         3.6040     0.6290     7.4750 h1         1 BT2       0.034200
     63 H272         3.1830     1.4690     5.9780 h1         1 BT2       0.034200
     64 H221         4.4730     1.2950    -7.8560 h1         1 BT2       0.038450
     65 H222         5.1840     0.1360    -6.7290 h1         1 BT2       0.038450
     66 H281         3.4380    -1.5150    -5.6120 h1         1 BT2       0.038450
     67 H282         1.7580    -1.2580    -6.0920 h1         1 BT2       0.038450
     68 H291         2.2040    -1.7840    -8.3670 hc         1 BT2       0.046200
     69 H292         3.4530    -2.7680    -7.6290 hc         1 BT2       0.046200
     70 H301         3.8170    -0.4490    -9.3540 hc         1 BT2       0.046200
     71 H302         5.1080    -1.3270    -8.5560 hc         1 BT2       0.046200
     72 H331         2.8840    -2.2980     5.4600 h1         1 BT2       0.039700
     73 H332         2.5510    -1.5200     7.0040 h1         1 BT2       0.039700
     74 H341         3.4980     2.1330    -5.7660 h1         1 BT2       0.041700
     75 H342         3.8700     0.7760    -4.7130 h1         1 BT2       0.041700
     76 H171         5.6510     1.7440     7.2330 hc         1 BT2       0.046950
@<TRIPOS>BOND
     1     1     2 ar  
     2     1     6 ar  
     3     1    39 1   
     4     2     3 ar  
     5     2    40 1   
     6     3     4 ar  
     7     3     7 1   
     8     4     5 ar  
     9     4     9 1   
    10     5     6 ar  
    11     5    41 1   
    12     6    42 1   
    13     7     8 1   
    14     8     9 2   
    15     8    11 1   
    16     9    10 1   
    17    10    20 1   
    18    10    43 1   
    19    10    44 1   
    20    11    12 ar  
    21    11    16 ar  
    22    12    13 ar  
    23    12    45 1   
    24    13    14 ar  
    25    13    46 1   
    26    14    15 ar  
    27    14    17 1   
    28    15    16 ar  
    29    15    47 1   
    30    16    48 1   
    31    17    18 1   
    32    18    38 1   
    33    18    49 1   
    34    18    50 1   
    35    19    20 ar  
    36    19    24 ar  
    37    19    51 1   
    38    20    21 ar  
    39    21    22 ar  
    40    21    52 1   
    41    22    23 ar  
    42    22    53 1   
    43    23    24 ar  
    44    23    25 1   
    45    24    54 1   
    46    25    26 1   
    47    26    37 1   
    48    26    55 1   
    49    26    56 1   
    50    27    28 1   
    51    27    31 1   
    52    27    57 1   
    53    27    76 1   
    54    28    29 1   
    55    28    58 1   
    56    28    59 1   
    57    29    30 1   
    58    29    60 1   
    59    29    61 1   
    60    30    31 1   
    61    30    37 1   
    62    31    62 1   
    63    31    63 1   
    64    32    33 1   
    65    32    36 1   
    66    32    64 1   
    67    32    65 1   
    68    33    34 1   
    69    33    38 1   
    70    34    35 1   
    71    34    66 1   
    72    34    67 1   
    73    35    36 1   
    74    35    68 1   
    75    35    69 1   
    76    36    70 1   
    77    36    71 1   
    78    37    72 1   
    79    37    73 1   
    80    38    74 1   
    81    38    75 1   
@<TRIPOS>SUBSTRUCTURE
     1 BT2         1 TEMP              0 ****  ****    0 ROOT
