@<TRIPOS>MOLECULE
BT3
   76    81     1     0     0
SMALL
No Charge or Current Charge


@<TRIPOS>ATOM
      1 C1          -5.8950     0.9390     5.7130 ca         1 BT3       0.153100
      2 C2          -5.8740    -0.0470     4.7110 ca         1 BT3      -0.188000
      3 C3          -5.0110     0.1160     3.6170 ca         1 BT3      -0.118000
      4 C4          -4.1850     1.2230     3.5100 ca         1 BT3      -0.102800
      5 C5          -4.2000     2.2200     4.5060 ca         1 BT3      -0.038000
      6 C6          -5.0620     2.0690     5.6100 ca         1 BT3      -0.146000
      7 S1          -4.8650    -1.0350     2.2680 ss         1 BT3       0.059400
      8 C8          -3.6730     0.0570     1.5250 cc         1 BT3       0.012400
      9 C9          -3.3750     1.1800     2.2960 cd         1 BT3      -0.042400
     10 C7          -2.3330     2.2420     1.9570 c3         1 BT3       0.038100
     11 C10         -2.9600    -0.2610     0.2920 ca         1 BT3      -0.127800
     12 C12         -2.9850     0.5990    -0.8180 ca         1 BT3      -0.031000
     13 C14         -2.2140     0.2520    -1.9370 ca         1 BT3      -0.195000
     14 C16         -1.4590    -0.9310    -1.9200 ca         1 BT3       0.595300
     15 N1          -1.4700    -1.7860    -0.8770 nb         1 BT3      -0.757000
     16 C20         -2.2080    -1.4470     0.2030 ca         1 BT3       0.400900
     17 O2          -0.6830    -1.2070    -3.0180 os         1 BT3      -0.468300
     18 C24          0.2350    -2.3230    -3.0190 c3         1 BT3       0.171600
     19 C11         -0.4530     2.3390     0.2430 ca         1 BT3      -0.064500
     20 C13         -1.0090     1.7330     1.3880 ca         1 BT3      -0.119300
     21 C15         -0.3430     0.6430     1.9820 ca         1 BT3      -0.064500
     22 C32          0.8370     0.1330     1.4110 ca         1 BT3      -0.173000
     23 C19          1.3720     0.7260     0.2470 ca         1 BT3       0.148100
     24 C21          0.7310     1.8370    -0.3200 ca         1 BT3      -0.173000
     25 O3           2.5110     0.2570    -0.3700 os         1 BT3      -0.352100
     26 C25          3.0960    -1.0170    -0.0310 c3         1 BT3       0.163600
     27 C17          7.0530     1.2020    -0.2540 c5         1 BT3      -0.080400
     28 C23          7.8410    -0.0310    -0.8000 c5         1 BT3      -0.080400
     29 C26          6.7390    -0.9200    -1.4320 c5         1 BT3       0.158800
     30 N2           5.5850    -0.6140    -0.5650 n3         1 BT3      -0.718600
     31 C27          5.5680     0.8650    -0.5580 c5         1 BT3       0.158800
     32 C22          3.1380    -1.2420    -5.3940 c5         1 BT3       0.159800
     33 N3           2.2620    -1.2800    -4.2090 n3         1 BT3      -0.719600
     34 C28          1.8900     0.1410    -4.0180 c5         1 BT3       0.159800
     35 C29          3.2420     0.8850    -4.2150 c5         1 BT3      -0.080400
     36 C30          4.1420    -0.1450    -4.9650 c5         1 BT3      -0.080400
     37 C33          4.3130    -1.2830    -0.9570 c3         1 BT3       0.170800
     38 C34          1.1330    -2.2490    -4.2820 c3         1 BT3       0.167800
     39 O1          -6.7240     0.8070     6.7870 oh         1 BT3      -0.532100
     40 H2          -6.5130    -0.9250     4.7760 ha         1 BT3       0.122000
     41 H5          -3.5690     3.1020     4.4390 ha         1 BT3       0.118000
     42 H6          -5.0850     2.8300     6.3860 ha         1 BT3       0.130000
     43 H71         -2.7880     2.9560     1.2610 hc         1 BT3       0.052700
     44 H72         -2.0910     2.8310     2.8470 hc         1 BT3       0.052700
     45 H12         -3.5620     1.5210    -0.8020 ha         1 BT3       0.125000
     46 H14         -2.1780     0.8990    -2.8070 ha         1 BT3       0.137000
     47 H20         -2.1730    -2.1420     1.0430 h4         1 BT3       0.028100
     48 H241         0.8770    -2.3130    -2.1280 h1         1 BT3       0.058200
     49 H242        -0.3210    -3.2700    -3.0290 h1         1 BT3       0.058200
     50 H11         -0.9490     3.1870    -0.2240 ha         1 BT3       0.111500
     51 H15         -0.7560     0.1720     2.8720 ha         1 BT3       0.111500
     52 H32          1.3160    -0.7200     1.8800 ha         1 BT3       0.122000
     53 H21          1.1450     2.2990    -1.2120 ha         1 BT3       0.122000
     54 H251         3.4230    -1.0420     1.0160 h1         1 BT3       0.042700
     55 H252         2.3600    -1.8160    -0.1840 h1         1 BT3       0.042700
     56 H172         7.3580     2.1390    -0.7320 hc         1 BT3       0.045700
     57 H231         8.3480    -0.5600     0.0150 hc         1 BT3       0.045700
     58 H232         8.6070     0.2490    -1.5310 hc         1 BT3       0.045700
     59 H261         7.0090    -1.9850    -1.4180 h1         1 BT3       0.038450
     60 H262         6.5450    -0.6290    -2.4750 h1         1 BT3       0.038450
     61 H271         5.2680     1.2650    -1.5360 h1         1 BT3       0.038450
     62 H272         4.8930     1.2810     0.2030 h1         1 BT3       0.038450
     63 H221         3.6340    -2.2030    -5.5850 h1         1 BT3       0.037200
     64 H222         2.5840    -0.9500    -6.2980 h1         1 BT3       0.037200
     65 H281         1.1580     0.4610    -4.7730 h1         1 BT3       0.037200
     66 H282         1.4620     0.3350    -3.0260 h1         1 BT3       0.037200
     67 H291         3.6840     1.1690    -3.2540 hc         1 BT3       0.045950
     68 H292         3.1030     1.8070    -4.7890 hc         1 BT3       0.045950
     69 H301         4.9050    -0.5590    -4.2960 hc         1 BT3       0.045950
     70 H302         4.6650     0.2950    -5.8210 hc         1 BT3       0.045950
     71 H331         4.4790    -2.3680    -0.9640 h1         1 BT3       0.041200
     72 H332         4.0370    -1.0050    -1.9820 h1         1 BT3       0.041200
     73 H341         1.5460    -3.2530    -4.4460 h1         1 BT3       0.040700
     74 H342         0.4970    -2.0260    -5.1500 h1         1 BT3       0.040700
     75 HO1         -7.2230    -0.0310     6.6880 ho         1 BT3       0.466000
     76 H171         7.2170     1.3220     0.8230 hc         1 BT3       0.045700
@<TRIPOS>BOND
     1     1     2 ar  
     2     1     6 ar  
     3     1    39 1   
     4     2     3 ar  
     5     2    40 1   
     6     3     4 ar  
     7     3     7 1   
     8     4     5 ar  
     9     4     9 1   
    10     5     6 ar  
    11     5    41 1   
    12     6    42 1   
    13     7     8 1   
    14     8     9 2   
    15     8    11 1   
    16     9    10 1   
    17    10    20 1   
    18    10    43 1   
    19    10    44 1   
    20    11    12 ar  
    21    11    16 ar  
    22    12    13 ar  
    23    12    45 1   
    24    13    14 ar  
    25    13    46 1   
    26    14    15 ar  
    27    14    17 1   
    28    15    16 ar  
    29    16    47 1   
    30    17    18 1   
    31    18    38 1   
    32    18    48 1   
    33    18    49 1   
    34    19    20 ar  
    35    19    24 ar  
    36    19    50 1   
    37    20    21 ar  
    38    21    22 ar  
    39    21    51 1   
    40    22    23 ar  
    41    22    52 1   
    42    23    24 ar  
    43    23    25 1   
    44    24    53 1   
    45    25    26 1   
    46    26    37 1   
    47    26    54 1   
    48    26    55 1   
    49    27    28 1   
    50    27    31 1   
    51    27    56 1   
    52    27    76 1   
    53    28    29 1   
    54    28    57 1   
    55    28    58 1   
    56    29    30 1   
    57    29    59 1   
    58    29    60 1   
    59    30    31 1   
    60    30    37 1   
    61    31    61 1   
    62    31    62 1   
    63    32    33 1   
    64    32    36 1   
    65    32    63 1   
    66    32    64 1   
    67    33    34 1   
    68    33    38 1   
    69    34    35 1   
    70    34    65 1   
    71    34    66 1   
    72    35    36 1   
    73    35    67 1   
    74    35    68 1   
    75    36    69 1   
    76    36    70 1   
    77    37    71 1   
    78    37    72 1   
    79    38    73 1   
    80    38    74 1   
    81    39    75 1   
@<TRIPOS>SUBSTRUCTURE
     1 BT3         1 TEMP              0 ****  ****    0 ROOT
