@<TRIPOS>MOLECULE
BT3
   76    81     1     0     0
SMALL
abcg2


@<TRIPOS>ATOM
      1 C1          -4.8750     0.0240     5.4140 ca         1 BT3       0.153100
      2 C2          -5.0830    -0.6690     4.2320 ca         1 BT3      -0.188000
      3 C3          -4.3860    -0.2590     3.0990 ca         1 BT3      -0.118000
      4 C4          -3.4910     0.8220     3.1120 ca         1 BT3      -0.102800
      5 C5          -3.3050     1.5030     4.3220 ca         1 BT3      -0.038000
      6 C6          -3.9850     1.1110     5.4530 ca         1 BT3      -0.146000
      7 S1          -4.4830    -0.9630     1.5230 ss         1 BT3       0.059400
      8 C8          -3.3240     0.1790     0.8890 cc         1 BT3       0.012400
      9 C9          -2.8840     1.0560     1.8280 cd         1 BT3      -0.042400
     10 C7          -1.8020     2.0760     1.5950 c3         1 BT3       0.038100
     11 C10         -2.9120     0.0710    -0.5120 ca         1 BT3      -0.127800
     12 C12         -3.0810     1.1230    -1.4220 ca         1 BT3      -0.031000
     13 C14         -2.6400     0.9890    -2.7170 ca         1 BT3      -0.195000
     14 C16         -2.0420    -0.2250    -3.0830 ca         1 BT3       0.595300
     15 N1          -1.8880    -1.2300    -2.2460 nb         1 BT3      -0.757000
     16 C20         -2.3110    -1.0810    -0.9940 ca         1 BT3       0.400900
     17 O2          -1.6260    -0.3400    -4.3420 os         1 BT3      -0.468300
     18 C24         -1.0140    -1.5610    -4.7540 c3         1 BT3       0.171600
     19 C11          0.2670     1.1070     0.5180 ca         1 BT3      -0.064500
     20 C13         -0.4310     1.4500     1.6750 ca         1 BT3      -0.119300
     21 C15          0.1650     1.1620     2.8960 ca         1 BT3      -0.064500
     22 C32          1.4100     0.5480     2.9780 ca         1 BT3      -0.173000
     23 C19          2.0900     0.2070     1.8110 ca         1 BT3       0.148100
     24 C21          1.5070     0.4970     0.5770 ca         1 BT3      -0.173000
     25 O3           3.2960    -0.3920     1.7750 os         1 BT3      -0.352100
     26 C25          3.9640    -0.6700     2.9940 c3         1 BT3       0.163600
     27 C17          7.5350     0.7850     0.6320 c5         1 BT3      -0.080400
     28 C23          8.5250     0.0020     1.5190 c5         1 BT3      -0.080400
     29 C26          7.6470    -1.0150     2.2460 c5         1 BT3       0.158800
     30 N2           6.3320    -0.3950     2.2690 n3         1 BT3      -0.718600
     31 C27          6.1710     0.1600     0.9330 c5         1 BT3       0.158800
     32 C22          1.1280    -0.8430    -7.7720 c5         1 BT3       0.159800
     33 N3           0.5860    -0.6580    -6.4350 n3         1 BT3      -0.719600
     34 C28          0.4310     0.7830    -6.3010 c5         1 BT3       0.159800
     35 C29          1.6950     1.3580    -6.9520 c5         1 BT3      -0.080400
     36 C30          2.2040     0.2330    -7.8760 c5         1 BT3      -0.080400
     37 C33          5.3040    -1.3120     2.7040 c3         1 BT3       0.170800
     38 C34         -0.6020    -1.4470    -6.2050 c3         1 BT3       0.167800
     39 O1          -5.4990    -0.2940     6.5640 oh         1 BT3      -0.532100
     40 H2          -5.7690    -1.5070     4.1900 ha         1 BT3       0.122000
     41 H5          -2.6280     2.3460     4.3780 ha         1 BT3       0.118000
     42 H6          -3.8400     1.6400     6.3860 ha         1 BT3       0.130000
     43 H71         -1.9270     2.5430     0.6180 hc         1 BT3       0.052700
     44 H72         -1.8920     2.8820     2.3260 hc         1 BT3       0.052700
     45 H12         -3.5650     2.0400    -1.1100 ha         1 BT3       0.125000
     46 H14         -2.7580     1.7840    -3.4400 ha         1 BT3       0.137000
     47 H20         -2.1520    -1.9260    -0.3330 h4         1 BT3       0.028100
     48 H241        -0.1440    -1.7860    -4.1310 h1         1 BT3       0.058200
     49 H242        -1.7260    -2.3830    -4.6430 h1         1 BT3       0.058200
     50 H11         -0.1620     1.3260    -0.4520 ha         1 BT3       0.111500
     51 H15         -0.3420     1.4170     3.8190 ha         1 BT3       0.111500
     52 H32          1.8270     0.3480     3.9550 ha         1 BT3       0.122000
     53 H21          2.0340     0.2440    -0.3360 ha         1 BT3       0.122000
     54 H251         4.1120     0.2460     3.5760 h1         1 BT3       0.042700
     55 H252         3.3650    -1.3590     3.6000 h1         1 BT3       0.042700
     56 H172         7.7760     0.7130    -0.4290 hc         1 BT3       0.045700
     57 H231         9.0180     0.6660     2.2290 hc         1 BT3       0.045700
     58 H232         9.3080    -0.4900     0.9430 hc         1 BT3       0.045700
     59 H261         7.9900    -1.2390     3.2580 h1         1 BT3       0.038450
     60 H262         7.6300    -1.9680     1.6880 h1         1 BT3       0.038450
     61 H271         5.9440    -0.6300     0.1970 h1         1 BT3       0.038450
     62 H272         5.3620     0.8870     0.8900 h1         1 BT3       0.038450
     63 H221         1.5140    -1.8570    -7.8990 h1         1 BT3       0.037200
     64 H222         0.3590    -0.6870    -8.5480 h1         1 BT3       0.037200
     65 H281        -0.4670     1.1380    -6.8330 h1         1 BT3       0.037200
     66 H282         0.3270     1.0830    -5.2590 h1         1 BT3       0.037200
     67 H291         2.4420     1.6090    -6.1990 hc         1 BT3       0.045950
     68 H292         1.4700     2.2740    -7.4970 hc         1 BT3       0.045950
     69 H301         3.1620    -0.1500    -7.5240 hc         1 BT3       0.045950
     70 H302         2.3460     0.5630    -8.9050 hc         1 BT3       0.045950
     71 H331         5.6370    -1.7580     3.6450 h1         1 BT3       0.041200
     72 H332         5.1640    -2.1480     1.9980 h1         1 BT3       0.041200
     73 H341        -0.3900    -2.4680    -6.5350 h1         1 BT3       0.040700
     74 H342        -1.4600    -1.1000    -6.8070 h1         1 BT3       0.040700
     75 HO1         -6.0760    -1.0560     6.4390 ho         1 BT3       0.466000
     76 H171         7.5400     1.8440     0.8890 hc         1 BT3       0.045700
@<TRIPOS>BOND
     1     1     2 ar  
     2     1     6 ar  
     3     1    39 1   
     4     2     3 ar  
     5     2    40 1   
     6     3     4 ar  
     7     3     7 1   
     8     4     5 ar  
     9     4     9 1   
    10     5     6 ar  
    11     5    41 1   
    12     6    42 1   
    13     7     8 1   
    14     8     9 2   
    15     8    11 1   
    16     9    10 1   
    17    10    20 1   
    18    10    43 1   
    19    10    44 1   
    20    11    12 ar  
    21    11    16 ar  
    22    12    13 ar  
    23    12    45 1   
    24    13    14 ar  
    25    13    46 1   
    26    14    15 ar  
    27    14    17 1   
    28    15    16 ar  
    29    16    47 1   
    30    17    18 1   
    31    18    38 1   
    32    18    48 1   
    33    18    49 1   
    34    19    20 ar  
    35    19    24 ar  
    36    19    50 1   
    37    20    21 ar  
    38    21    22 ar  
    39    21    51 1   
    40    22    23 ar  
    41    22    52 1   
    42    23    24 ar  
    43    23    25 1   
    44    24    53 1   
    45    25    26 1   
    46    26    37 1   
    47    26    54 1   
    48    26    55 1   
    49    27    28 1   
    50    27    31 1   
    51    27    56 1   
    52    27    76 1   
    53    28    29 1   
    54    28    57 1   
    55    28    58 1   
    56    29    30 1   
    57    29    59 1   
    58    29    60 1   
    59    30    31 1   
    60    30    37 1   
    61    31    61 1   
    62    31    62 1   
    63    32    33 1   
    64    32    36 1   
    65    32    63 1   
    66    32    64 1   
    67    33    34 1   
    68    33    38 1   
    69    34    35 1   
    70    34    65 1   
    71    34    66 1   
    72    35    36 1   
    73    35    67 1   
    74    35    68 1   
    75    36    69 1   
    76    36    70 1   
    77    37    71 1   
    78    37    72 1   
    79    38    73 1   
    80    38    74 1   
    81    39    75 1   
@<TRIPOS>SUBSTRUCTURE
     1 BT3         1 TEMP              0 ****  ****    0 ROOT
