@<TRIPOS>MOLECULE
BT6
   13    13     1     0     0
SMALL
No Charge or Current Charge


@<TRIPOS>ATOM
      1 S1           2.2690    -0.3590     0.3340 sh         1 BT6      -0.211800
      2 C1           0.5000    -0.2060     0.1680 ca         1 BT6      -0.093000
      3 C6          -0.1180     1.0570     0.2240 ca         1 BT6      -0.085500
      4 C5          -1.5130     1.1720     0.0930 ca         1 BT6      -0.109500
      5 C4          -2.2990     0.0230    -0.0940 ca         1 BT6      -0.100000
      6 C3          -1.6880    -1.2410    -0.1510 ca         1 BT6      -0.109500
      7 C2          -0.2930    -1.3540    -0.0200 ca         1 BT6      -0.085500
      8 HS1          2.5210     0.9630     0.4830 hs         1 BT6       0.205800
      9 H6           0.4830     1.9530     0.3690 ha         1 BT6       0.121500
     10 H5          -1.9840     2.1520     0.1370 ha         1 BT6       0.115500
     11 H4          -3.3790     0.1120    -0.1960 ha         1 BT6       0.115000
     12 H3          -2.2940    -2.1320    -0.2960 ha         1 BT6       0.115500
     13 H2           0.1750    -2.3350    -0.0640 ha         1 BT6       0.121500
@<TRIPOS>BOND
     1     1     2 1   
     2     1     8 1   
     3     2     3 ar  
     4     2     7 ar  
     5     3     4 ar  
     6     3     9 1   
     7     4     5 ar  
     8     4    10 1   
     9     5     6 ar  
    10     5    11 1   
    11     6     7 ar  
    12     6    12 1   
    13     7    13 1   
@<TRIPOS>SUBSTRUCTURE
     1 BT6         1 TEMP              0 ****  ****    0 ROOT
