@<TRIPOS>MOLECULE
BT6
   13    13     1     0     0
SMALL
abcg2


@<TRIPOS>ATOM
      1 S1           2.2560    -0.2480     0.0260 sh         1 BT6      -0.211800
      2 C1           0.4850    -0.1320     0.0540 ca         1 BT6      -0.093000
      3 C6          -0.1510     1.1070     0.0830 ca         1 BT6      -0.085500
      4 C5          -1.5360     1.1770     0.0490 ca         1 BT6      -0.109500
      5 C4          -2.2890     0.0150    -0.0510 ca         1 BT6      -0.100000
      6 C3          -1.6560    -1.2180    -0.0990 ca         1 BT6      -0.109500
      7 C2          -0.2720    -1.2930    -0.0340 ca         1 BT6      -0.085500
      8 HS1          2.5130     0.5550     1.0650 hs         1 BT6       0.205800
      9 H6           0.4430     2.0100     0.1290 ha         1 BT6       0.121500
     10 H5          -2.0330     2.1360     0.0860 ha         1 BT6       0.115500
     11 H4          -3.3690     0.0720    -0.0940 ha         1 BT6       0.115000
     12 H3          -2.2420    -2.1230    -0.1750 ha         1 BT6       0.115500
     13 H2           0.2310    -2.2520    -0.0510 ha         1 BT6       0.121500
@<TRIPOS>BOND
     1     1     2 1   
     2     1     8 1   
     3     2     3 ar  
     4     2     7 ar  
     5     3     4 ar  
     6     3     9 1   
     7     4     5 ar  
     8     4    10 1   
     9     5     6 ar  
    10     5    11 1   
    11     6     7 ar  
    12     6    12 1   
    13     7    13 1   
@<TRIPOS>SUBSTRUCTURE
     1 BT6         1 TEMP              0 ****  ****    0 ROOT
