@<TRIPOS>MOLECULE
BT7
   31    31     1     0     0
SMALL
No Charge or Current Charge


@<TRIPOS>ATOM
      1 N10         -0.9830     0.3380    -1.6130 nc         1 BT7      -0.517800
      2 C11          2.2770     0.2730     0.1740 c3         1 BT7       0.208600
      3 C01         -2.7730    -2.5530    -0.2310 c3         1 BT7      -0.091600
      4 C02         -3.1000    -1.3580     0.6920 c3         1 BT7      -0.089400
      5 C03         -2.7760     0.0300     0.0750 c3         1 BT7       0.088300
      6 C04         -3.2440     1.1830     1.0040 c3         1 BT7      -0.089400
      7 C05         -3.0700     2.5930     0.3980 c3         1 BT7      -0.091600
      8 C07         -0.2610     0.1040     0.5780 cc         1 BT7      -0.130000
      9 C08          0.8290     0.2610    -0.2330 cd         1 BT7      -0.270300
     10 C09          0.3310     0.3980    -1.5480 cd         1 BT7       0.241900
     11 C13          3.1350    -0.7530    -0.6180 c3         1 BT7       0.146300
     12 F14          4.4070    -0.7670    -0.1540 f          1 BT7      -0.118500
     13 F15          2.6390    -2.0040    -0.4550 f          1 BT7      -0.118500
     14 N06         -1.3460     0.1550    -0.2930 na         1 BT7       0.145800
     15 O12          2.7830     1.5990    -0.0130 oh         1 BT7      -0.638000
     16 H1           2.3340    -0.0030     1.2380 h1         1 BT7       0.094700
     17 H2          -3.0790    -3.4940     0.2420 hc         1 BT7       0.041867
     18 H3          -3.3020    -2.4610    -1.1860 hc         1 BT7       0.041867
     19 H4          -1.6970    -2.6120    -0.4350 hc         1 BT7       0.041867
     20 H5          -4.1680    -1.3970     0.9400 hc         1 BT7       0.048450
     21 H6          -2.5550    -1.4770     1.6370 hc         1 BT7       0.048450
     22 H7          -3.3560     0.1100    -0.8530 h1         1 BT7       0.088700
     23 H8          -4.3050     1.0400     1.2430 hc         1 BT7       0.048450
     24 H9          -2.6990     1.1330     1.9550 hc         1 BT7       0.048450
     25 H10         -2.0110     2.8210     0.2240 hc         1 BT7       0.041867
     26 H11         -3.6030     2.6740    -0.5570 hc         1 BT7       0.041867
     27 H12         -3.4710     3.3530     1.0790 hc         1 BT7       0.041867
     28 H13         -0.3600    -0.0370     1.6480 h4         1 BT7       0.158000
     29 H14          0.8980     0.5370    -2.4610 h4         1 BT7       0.035100
     30 H15          3.1420    -0.5070    -1.6840 h2         1 BT7       0.053700
     31 H16          2.1200     2.2030     0.3850 ho         1 BT7       0.447000
@<TRIPOS>BOND
     1     1    10 2   
     2     1    14 1   
     3     2     9 1   
     4     2    11 1   
     5     2    15 1   
     6     2    16 1   
     7     3     4 1   
     8     3    17 1   
     9     3    18 1   
    10     3    19 1   
    11     4     5 1   
    12     4    20 1   
    13     4    21 1   
    14     5     6 1   
    15     5    14 1   
    16     5    22 1   
    17     6     7 1   
    18     6    23 1   
    19     6    24 1   
    20     7    25 1   
    21     7    26 1   
    22     7    27 1   
    23     8     9 2   
    24     8    14 1   
    25     8    28 1   
    26     9    10 1   
    27    10    29 1   
    28    11    12 1   
    29    11    13 1   
    30    11    30 1   
    31    15    31 1   
@<TRIPOS>SUBSTRUCTURE
     1 BT7         1 TEMP              0 ****  ****    0 ROOT
