@<TRIPOS>MOLECULE
BT7
   31    31     1     0     0
SMALL
abcg2


@<TRIPOS>ATOM
      1 N10         -1.0540     0.3440    -1.5310 nc         1 BT7      -0.517800
      2 C11          2.1970     0.3170     0.2290 c3         1 BT7       0.208600
      3 C01         -2.6650    -2.4890    -0.2710 c3         1 BT7      -0.091600
      4 C02         -3.1060    -1.3610     0.6500 c3         1 BT7      -0.089400
      5 C03         -2.8120     0.0330     0.1020 c3         1 BT7       0.088300
      6 C04         -3.2350     1.1380     1.0650 c3         1 BT7      -0.089400
      7 C05         -3.0220     2.5430     0.5200 c3         1 BT7      -0.091600
      8 C07         -0.3470     0.1120     0.5580 cc         1 BT7      -0.130000
      9 C08          0.7770     0.2620    -0.2230 cd         1 BT7      -0.270300
     10 C09          0.2650     0.4060    -1.5260 cd         1 BT7       0.241900
     11 C13          3.0410    -0.7000    -0.5260 c3         1 BT7       0.146300
     12 F14          4.3090    -0.7130    -0.0320 f          1 BT7      -0.118500
     13 F15          2.5340    -1.9490    -0.3350 f          1 BT7      -0.118500
     14 N06         -1.4080     0.1660    -0.2630 na         1 BT7       0.145800
     15 O12          2.7740     1.5960     0.1070 oh         1 BT7      -0.638000
     16 H1           2.2460     0.0580     1.2920 h1         1 BT7       0.094700
     17 H2          -2.9850    -3.4530     0.1240 hc         1 BT7       0.041867
     18 H3          -3.0960    -2.3810    -1.2680 hc         1 BT7       0.041867
     19 H4          -1.5800    -2.5240    -0.3800 hc         1 BT7       0.041867
     20 H5          -4.1840    -1.4220     0.8180 hc         1 BT7       0.048450
     21 H6          -2.6410    -1.4790     1.6340 hc         1 BT7       0.048450
     22 H7          -3.3520     0.1590    -0.8400 h1         1 BT7       0.088700
     23 H8          -4.2940     0.9880     1.2880 hc         1 BT7       0.048450
     24 H9          -2.7070     1.0190     2.0170 hc         1 BT7       0.048450
     25 H10         -1.9700     2.7460     0.3170 hc         1 BT7       0.041867
     26 H11         -3.5770     2.6970    -0.4060 hc         1 BT7       0.041867
     27 H12         -3.3650     3.2880     1.2380 hc         1 BT7       0.041867
     28 H13         -0.4440    -0.0300     1.6230 h4         1 BT7       0.158000
     29 H14          0.8010     0.5460    -2.4540 h4         1 BT7       0.035100
     30 H15          3.0970    -0.5060    -1.6000 h2         1 BT7       0.053700
     31 H16          2.5400     1.9700    -0.7490 ho         1 BT7       0.447000
@<TRIPOS>BOND
     1     1    10 2   
     2     1    14 1   
     3     2     9 1   
     4     2    11 1   
     5     2    15 1   
     6     2    16 1   
     7     3     4 1   
     8     3    17 1   
     9     3    18 1   
    10     3    19 1   
    11     4     5 1   
    12     4    20 1   
    13     4    21 1   
    14     5     6 1   
    15     5    14 1   
    16     5    22 1   
    17     6     7 1   
    18     6    23 1   
    19     6    24 1   
    20     7    25 1   
    21     7    26 1   
    22     7    27 1   
    23     8     9 2   
    24     8    14 1   
    25     8    28 1   
    26     9    10 1   
    27    10    29 1   
    28    11    12 1   
    29    11    13 1   
    30    11    30 1   
    31    15    31 1   
@<TRIPOS>SUBSTRUCTURE
     1 BT7         1 TEMP              0 ****  ****    0 ROOT
