@<TRIPOS>MOLECULE
BT9
   29    30     1     0     0
SMALL
bcc


@<TRIPOS>ATOM
      1 C01          4.6410     0.4120    -0.4450 ca         1 BT9      -0.115000
      2 C02          4.3420     1.7630    -0.5580 ca         1 BT9      -0.141000
      3 C03          3.0680     2.2290    -0.2760 ca         1 BT9      -0.195000
      4 C04          2.0770     1.3410     0.1450 ca         1 BT9       0.106600
      5 C05          2.3910    -0.0110     0.2810 ca         1 BT9      -0.130000
      6 C06          3.6630    -0.4850    -0.0220 ca         1 BT9      -0.115600
      7 N07          0.8220     1.8540     0.4750 nu         1 BT9      -0.646000
      8 C08         -0.4100     1.2770     0.3080 ca         1 BT9       0.243600
      9 C09         -1.5150     1.8700     0.9400 ca         1 BT9      -0.217500
     10 C10         -2.7840     1.3520     0.7910 ca         1 BT9      -0.034500
     11 C11         -2.9980     0.2160     0.0140 ca         1 BT9      -0.278300
     12 C12         -1.9120    -0.3690    -0.6280 ca         1 BT9      -0.034500
     13 C13         -0.6380     0.1480    -0.4910 ca         1 BT9      -0.217500
     14 C14          3.9810    -1.9700     0.1310 c          1 BT9       0.922200
     15 O15          5.1460    -2.3180    -0.1370 o          1 BT9      -0.820300
     16 O16          3.0500    -2.7050     0.5110 o          1 BT9      -0.820300
     17 C17         -4.3740    -0.3180    -0.1800 c3         1 BT9       0.726200
     18 F18         -4.3830    -1.6380    -0.4110 f          1 BT9      -0.246967
     19 F19         -5.1600    -0.1020     0.8840 f          1 BT9      -0.246967
     20 F20         -4.9990     0.2510    -1.2280 f          1 BT9      -0.246967
     21 H1           5.6330     0.0540    -0.6800 ha         1 BT9       0.150000
     22 H2           5.1030     2.4620    -0.8800 ha         1 BT9       0.107000
     23 H3           2.8370     3.2830    -0.3800 ha         1 BT9       0.103000
     24 H4           1.6520    -0.7100     0.6470 ha         1 BT9       0.159000
     25 H5           0.8160     2.7980     0.8270 hn         1 BT9       0.424800
     26 H6          -1.3670     2.7470     1.5590 ha         1 BT9       0.146000
     27 H7          -3.6030     1.8410     1.3010 ha         1 BT9       0.135000
     28 H8          -2.0430    -1.2400    -1.2580 ha         1 BT9       0.135000
     29 H9           0.1730    -0.3240    -1.0260 ha         1 BT9       0.146000
@<TRIPOS>BOND
     1     1     2 ar  
     2     1     6 ar  
     3     1    21 1   
     4     2     3 ar  
     5     2    22 1   
     6     3     4 ar  
     7     3    23 1   
     8     4     5 ar  
     9     4     7 1   
    10     5     6 ar  
    11     5    24 1   
    12     6    14 1   
    13     7     8 1   
    14     7    25 1   
    15     8     9 ar  
    16     8    13 ar  
    17     9    10 ar  
    18     9    26 1   
    19    10    11 ar  
    20    10    27 1   
    21    11    12 ar  
    22    11    17 1   
    23    12    13 ar  
    24    12    28 1   
    25    13    29 1   
    26    14    15 1   
    27    14    16 1   
    28    17    18 1   
    29    17    19 1   
    30    17    20 1   
@<TRIPOS>SUBSTRUCTURE
     1 BT9         1 TEMP              0 ****  ****    0 ROOT
