@<TRIPOS>MOLECULE
BT9
   29    30     1     0     0
SMALL
No Charge or Current Charge


@<TRIPOS>ATOM
      1 C01          4.7450     0.4270    -0.3180 ca         1 BT9      -0.097000
      2 C02          4.4510     1.7950    -0.4310 ca         1 BT9      -0.123000
      3 C03          3.1390     2.2530    -0.2320 ca         1 BT9      -0.177000
      4 C04          2.1110     1.3470     0.0700 ca         1 BT9       0.245000
      5 C05          2.4120    -0.0230     0.2010 ca         1 BT9      -0.112000
      6 C06          3.7300    -0.5050     0.0040 ca         1 BT9      -0.115600
      7 N07          0.8220     1.8440     0.2750 nu         1 BT9      -0.978000
      8 C08         -0.4530     1.2830     0.1890 ca         1 BT9       0.382000
      9 C09         -1.5040     1.8780     0.8980 ca         1 BT9      -0.199500
     10 C10         -2.8040     1.3510     0.8240 ca         1 BT9      -0.016500
     11 C11         -3.0680     0.2170     0.0270 ca         1 BT9      -0.278300
     12 C12         -2.0130    -0.3620    -0.7090 ca         1 BT9      -0.016500
     13 C13         -0.7160     0.1710    -0.6270 ca         1 BT9      -0.199500
     14 C14          4.0470    -1.9860     0.1440 c          1 BT9       0.711600
     15 O15          5.2010    -2.3570    -0.0210 o          1 BT9      -0.715000
     16 O16          3.1370    -2.7570     0.4170 o          1 BT9      -0.715000
     17 C17         -4.4860    -0.3540    -0.0670 c3         1 BT9       0.362300
     18 F18         -4.4900    -1.6860    -0.3020 f          1 BT9      -0.125667
     19 F19         -5.1940    -0.1620     1.0700 f          1 BT9      -0.125667
     20 F20         -5.1830     0.2270    -1.0690 f          1 BT9      -0.125667
     21 H1           5.7680     0.0920    -0.4760 ha         1 BT9       0.132000
     22 H2           5.2420     2.5020    -0.6730 ha         1 BT9       0.089000
     23 H3           2.9230     3.3140    -0.3220 ha         1 BT9       0.085000
     24 H4           1.6230    -0.7160     0.4760 ha         1 BT9       0.141000
     25 H5           0.8050     2.8300     0.5340 hn         1 BT9       0.480000
     26 H6          -1.3150     2.7490     1.5180 ha         1 BT9       0.128000
     27 H7          -3.6040     1.8300     1.3860 ha         1 BT9       0.117000
     28 H8          -2.1930    -1.2210    -1.3530 ha         1 BT9       0.117000
     29 H9           0.0780    -0.2720    -1.2190 ha         1 BT9       0.128000
@<TRIPOS>BOND
     1     1     2 ar  
     2     1     6 ar  
     3     1    21 1   
     4     2     3 ar  
     5     2    22 1   
     6     3     4 ar  
     7     3    23 1   
     8     4     5 ar  
     9     4     7 1   
    10     5     6 ar  
    11     5    24 1   
    12     6    14 1   
    13     7     8 1   
    14     7    25 1   
    15     8     9 ar  
    16     8    13 ar  
    17     9    10 ar  
    18     9    26 1   
    19    10    11 ar  
    20    10    27 1   
    21    11    12 ar  
    22    11    17 1   
    23    12    13 ar  
    24    12    28 1   
    25    13    29 1   
    26    14    15 1   
    27    14    16 1   
    28    17    18 1   
    29    17    19 1   
    30    17    20 1   
@<TRIPOS>SUBSTRUCTURE
     1 BT9         1 TEMP              0 ****  ****    0 ROOT
