@<TRIPOS>MOLECULE
BTB
   33    32     1     0     0
SMALL
No Charge or Current Charge


@<TRIPOS>ATOM
      1 C1           2.2400    -0.6630     0.7640 c3         1 BTB       0.157600
      2 O1           2.9120     0.1430    -0.2260 oh         1 BTB      -0.654667
      3 C2           0.7550    -1.0870     0.4020 c3         1 BTB       0.205200
      4 C3           0.1830    -1.7430     1.7200 c3         1 BTB       0.157600
      5 O3          -1.2340    -1.9650     1.6310 oh         1 BTB      -0.654667
      6 C4           0.7660    -2.2840    -0.6440 c3         1 BTB       0.157600
      7 O4           1.5690    -2.0650    -1.8240 oh         1 BTB      -0.654667
      8 N           -0.1610     0.0790    -0.0110 n3         1 BTB      -0.782600
      9 C5          -0.2700     1.1810     1.0080 c3         1 BTB       0.201300
     10 C6          -1.7240     1.6310     1.3460 c3         1 BTB       0.149100
     11 O6          -2.5250     0.5240     1.8050 oh         1 BTB      -0.675000
     12 C7           0.0040     0.5830    -1.4250 c3         1 BTB       0.201300
     13 C8          -1.0460     1.6010    -1.9700 c3         1 BTB       0.149100
     14 O8          -0.7500     2.9590    -1.5850 oh         1 BTB      -0.675000
     15 H11          2.2250    -0.1090     1.7120 h1         1 BTB       0.029533
     16 H12          2.8230    -1.5750     0.9530 h1         1 BTB       0.029533
     17 HO1          3.8330     0.2760     0.0870 ho         1 BTB       0.450333
     18 H31          0.7030    -2.6890     1.9220 h1         1 BTB       0.029533
     19 H32          0.3900    -1.0960     2.5810 h1         1 BTB       0.029533
     20 HO3         -1.6170    -1.0650     1.4470 ho         1 BTB       0.450333
     21 H41          1.1430    -3.1840    -0.1400 h1         1 BTB       0.029533
     22 H42         -0.2700    -2.5020    -0.9360 h1         1 BTB       0.029533
     23 HO4          1.4900    -2.8710    -2.3790 ho         1 BTB       0.450333
     24 H51          0.2990     2.0600     0.6770 h1         1 BTB       0.049950
     25 H52          0.1890     0.8930     1.9610 h1         1 BTB       0.049950
     26 H61         -2.1900     2.0880     0.4660 h1         1 BTB       0.027200
     27 H62         -1.6740     2.4060     2.1220 h1         1 BTB       0.027200
     28 HO6         -3.4210     0.8820     1.9940 ho         1 BTB       0.440500
     29 H71          0.9980     1.0220    -1.5700 h1         1 BTB       0.049950
     30 H72         -0.0670    -0.2640    -2.1160 h1         1 BTB       0.049950
     31 H81         -1.0390     1.5320    -3.0650 h1         1 BTB       0.027200
     32 H82         -2.0500     1.3060    -1.6380 h1         1 BTB       0.027200
     33 HO8         -1.4200     3.5320    -2.0200 ho         1 BTB       0.440500
@<TRIPOS>BOND
     1     1     2 1   
     2     1     3 1   
     3     1    15 1   
     4     1    16 1   
     5     2    17 1   
     6     3     4 1   
     7     3     6 1   
     8     3     8 1   
     9     4     5 1   
    10     4    18 1   
    11     4    19 1   
    12     5    20 1   
    13     6     7 1   
    14     6    21 1   
    15     6    22 1   
    16     7    23 1   
    17     8     9 1   
    18     8    12 1   
    19     9    10 1   
    20     9    24 1   
    21     9    25 1   
    22    10    11 1   
    23    10    26 1   
    24    10    27 1   
    25    11    28 1   
    26    12    13 1   
    27    12    29 1   
    28    12    30 1   
    29    13    14 1   
    30    13    31 1   
    31    13    32 1   
    32    14    33 1   
@<TRIPOS>SUBSTRUCTURE
     1 BTB         1 TEMP              0 ****  ****    0 ROOT
