@<TRIPOS>MOLECULE
BTB
   33    32     1     0     0
SMALL
bcc


@<TRIPOS>ATOM
      1 C1           2.1600    -0.8120     0.8250 c3         1 BTB       0.134400
      2 O1           2.8320     0.0870    -0.0190 oh         1 BTB      -0.592467
      3 C2           0.7020    -1.0080     0.3730 c3         1 BTB       0.205200
      4 C3          -0.0320    -1.6410     1.5770 c3         1 BTB       0.134400
      5 O3          -1.3710    -1.9480     1.3080 oh         1 BTB      -0.592467
      6 C4           0.6090    -2.0580    -0.7490 c3         1 BTB       0.134400
      7 O4           1.6450    -1.9370    -1.7020 oh         1 BTB      -0.592467
      8 N            0.0190     0.2390     0.0060 n3         1 BTB      -0.782600
      9 C5          -0.0130     1.2790     1.0210 c3         1 BTB       0.201300
     10 C6          -1.4070     1.7150     1.4390 c3         1 BTB       0.125900
     11 O6          -2.0970     0.6390     2.0550 oh         1 BTB      -0.612800
     12 C7           0.1970     0.7450    -1.3450 c3         1 BTB       0.201300
     13 C8          -1.0670     1.2310    -2.0340 c3         1 BTB       0.125900
     14 O8          -1.3800     2.5560    -1.6510 oh         1 BTB      -0.612800
     15 H11          2.1590    -0.4360     1.8580 h1         1 BTB       0.029533
     16 H12          2.6590    -1.7910     0.8650 h1         1 BTB       0.029533
     17 HO1          3.6770     0.2940     0.3890 ho         1 BTB       0.411333
     18 H31          0.4810    -2.5710     1.8430 h1         1 BTB       0.029533
     19 H32          0.0540    -0.9870     2.4540 h1         1 BTB       0.029533
     20 HO3         -1.8250    -1.0890     1.2960 ho         1 BTB       0.411333
     21 H41          0.6640    -3.0490    -0.2810 h1         1 BTB       0.029533
     22 H42         -0.3800    -1.9870    -1.2180 h1         1 BTB       0.029533
     23 HO4          1.4900    -2.6040    -2.3770 ho         1 BTB       0.411333
     24 H51          0.5110     2.1760     0.6700 h1         1 BTB       0.049950
     25 H52          0.5310     0.9690     1.9160 h1         1 BTB       0.049950
     26 H61         -1.9530     2.0830     0.5690 h1         1 BTB       0.027200
     27 H62         -1.3020     2.5530     2.1410 h1         1 BTB       0.027200
     28 HO6         -3.0250     0.8770     2.1310 ho         1 BTB       0.401500
     29 H71          0.9420     1.5530    -1.3830 h1         1 BTB       0.049950
     30 H72          0.6000    -0.0430    -1.9730 h1         1 BTB       0.049950
     31 H81         -0.8980     1.1830    -3.1190 h1         1 BTB       0.027200
     32 H82         -1.8840     0.5350    -1.8040 h1         1 BTB       0.027200
     33 HO8         -2.2330     2.7840    -2.0300 ho         1 BTB       0.401500
@<TRIPOS>BOND
     1     1     2 1   
     2     1     3 1   
     3     1    15 1   
     4     1    16 1   
     5     2    17 1   
     6     3     4 1   
     7     3     6 1   
     8     3     8 1   
     9     4     5 1   
    10     4    18 1   
    11     4    19 1   
    12     5    20 1   
    13     6     7 1   
    14     6    21 1   
    15     6    22 1   
    16     7    23 1   
    17     8     9 1   
    18     8    12 1   
    19     9    10 1   
    20     9    24 1   
    21     9    25 1   
    22    10    11 1   
    23    10    26 1   
    24    10    27 1   
    25    11    28 1   
    26    12    13 1   
    27    12    29 1   
    28    12    30 1   
    29    13    14 1   
    30    13    31 1   
    31    13    32 1   
    32    14    33 1   
@<TRIPOS>SUBSTRUCTURE
     1 BTB         1 TEMP              0 ****  ****    0 ROOT
