@<TRIPOS>MOLECULE
BTC
   13    12     1     0     0
SMALL
No Charge or Current Charge


@<TRIPOS>ATOM
      1 N            1.6100     0.6730    -0.1540 n8         1 BTC      -0.880800
      2 CA           0.1530     0.4550     0.2020 c3         1 BTC       0.023500
      3 CB          -0.5000    -0.5290    -0.8000 c3         1 BTC       0.049700
      4 SG          -0.3160    -0.0340    -2.5850 sh         1 BTC      -0.502900
      5 C           -0.1810     0.0160     1.6890 c          1 BTC       0.933600
      6 O            0.2590    -1.0540     2.1050 o          1 BTC      -0.827800
      7 OXT         -0.8200     0.7850     2.4020 o          1 BTC      -0.827800
      8 H            1.6720     0.7860    -1.1720 hn         1 BTC       0.331300
      9 H2           2.1310    -0.1900     0.0360 hn         1 BTC       0.331300
     10 HA          -0.3490     1.4220     0.0590 h1         1 BTC       0.059700
     11 HB2         -0.0590    -1.5270    -0.6730 h1         1 BTC       0.059700
     12 HB3         -1.5720    -0.6080    -0.5770 h1         1 BTC       0.059700
     13 HG          -0.9860    -1.0930    -3.1040 hs         1 BTC       0.189800
@<TRIPOS>BOND
     1     1     2 1   
     2     1     8 1   
     3     1     9 1   
     4     2     3 1   
     5     2     5 1   
     6     2    10 1   
     7     3     4 1   
     8     3    11 1   
     9     3    12 1   
    10     4    13 1   
    11     5     6 1   
    12     5     7 1   
@<TRIPOS>SUBSTRUCTURE
     1 BTC         1 TEMP              0 ****  ****    0 ROOT
