@<TRIPOS>MOLECULE
BTC
   13    12     1     0     0
SMALL
bcc


@<TRIPOS>ATOM
      1 N            1.6080     0.5120    -0.1380 n8         1 BTC      -0.880800
      2 CA           0.1890     0.4740     0.1470 c3         1 BTC       0.023500
      3 CB          -0.6240    -0.4540    -0.7670 c3         1 BTC       0.049700
      4 SG          -0.5250     0.1280    -2.5000 sh         1 BTC      -0.502900
      5 C           -0.0810     0.0260     1.6080 c          1 BTC       0.933600
      6 O            0.8330    -0.5840     2.1930 o          1 BTC      -0.827800
      7 OXT         -1.2140     0.2890     2.0540 o          1 BTC      -0.827800
      8 H            1.7640     0.5260    -1.1390 hn         1 BTC       0.331300
      9 H2           2.0320    -0.3350     0.2190 hn         1 BTC       0.331300
     10 HA          -0.2180     1.4860     0.0340 h1         1 BTC       0.059700
     11 HB2         -0.2300    -1.4700    -0.7180 h1         1 BTC       0.059700
     12 HB3         -1.6680    -0.4700    -0.4580 h1         1 BTC       0.059700
     13 HG          -0.8250    -1.0260    -3.1050 hs         1 BTC       0.189800
@<TRIPOS>BOND
     1     1     2 1   
     2     1     8 1   
     3     1     9 1   
     4     2     3 1   
     5     2     5 1   
     6     2    10 1   
     7     3     4 1   
     8     3    11 1   
     9     3    12 1   
    10     4    13 1   
    11     5     6 1   
    12     5     7 1   
@<TRIPOS>SUBSTRUCTURE
     1 BTC         1 TEMP              0 ****  ****    0 ROOT
