@<TRIPOS>MOLECULE
BTD
   35    37     1     0     0
SMALL
No Charge or Current Charge


@<TRIPOS>ATOM
      1 O5           1.1530    -2.2520     6.8520 oh         1 BTD      -0.710000
      2 C5           0.6860    -0.9110     6.6000 c3         1 BTD       0.163600
      3 C4           1.1890    -0.3780     5.2290 c5         1 BTD       0.170300
      4 O4           0.5070    -1.0330     4.1390 os         1 BTD      -0.434000
      5 C1           0.7940    -0.2640     2.9580 c5         1 BTD       0.350700
      6 N1          -0.3470    -0.1830     2.0030 n          1 BTD      -0.312000
      7 C6          -0.0650    -0.2280     0.6320 cc         1 BTD       0.013600
      8 C2          -1.6750    -0.0940     2.4710 c          1 BTD       0.625000
      9 O2          -1.9980     0.0080     3.6430 o          1 BTD      -0.555000
     10 N3          -2.6330    -0.0920     1.5130 ns         1 BTD      -0.469500
     11 C8          -2.4960    -0.1480     0.1630 c          1 BTD       0.598200
     12 O1          -3.4880    -0.1370    -0.5450 o          1 BTD      -0.515000
     13 C7          -1.0780    -0.2140    -0.3140 cd         1 BTD      -0.195400
     14 C55         -0.6180    -0.2700    -1.6980 cd         1 BTD      -0.135800
     15 C44         -1.4720    -0.2670    -2.7810 cc         1 BTD      -0.103000
     16 C33         -0.8050    -0.3270    -4.0320 cc         1 BTD      -0.089000
     17 C22          0.5560    -0.3760    -3.9160 cd         1 BTD      -0.170900
     18 S11          1.0870    -0.3510    -2.2280 ss         1 BTD       0.217000
     19 Br           1.8310    -0.4630    -5.3030 br         1 BTD      -0.034100
     20 C9           1.1340     1.1870     3.4250 c5         1 BTD      -0.151400
     21 C3           0.8650     1.1200     4.9540 c5         1 BTD       0.138300
     22 O3           1.7010     2.0280     5.6800 oh         1 BTD      -0.710000
     23 HO5          0.7500    -2.5430     7.7040 ho         1 BTD       0.506000
     24 H5'1        -0.4120    -0.8750     6.6110 h1         1 BTD       0.036200
     25 H5'2         1.0460    -0.2360     7.3880 h1         1 BTD       0.036200
     26 H4           2.2690    -0.5650     5.1470 h1         1 BTD       0.076700
     27 H1           1.6450    -0.7080     2.4270 h2         1 BTD       0.065700
     28 H6           1.0000    -0.2740     0.4330 h4         1 BTD       0.212000
     29 HN3         -3.5790    -0.0320     1.8510 hn         1 BTD       0.344500
     30 H44         -2.5540    -0.2230    -2.7400 ha         1 BTD       0.153000
     31 H33         -1.3390    -0.3310    -4.9780 ha         1 BTD       0.148000
     32 H2'1         2.1840     1.4130     3.2060 hc         1 BTD       0.073700
     33 H2'2         0.5300     1.9590     2.9330 hc         1 BTD       0.073700
     34 H3          -0.1960     1.3140     5.1700 h1         1 BTD       0.071700
     35 HO3          1.4240     2.9420     5.4320 ho         1 BTD       0.512000
@<TRIPOS>BOND
     1     1     2 1   
     2     1    23 1   
     3     2     3 1   
     4     2    24 1   
     5     2    25 1   
     6     3     4 1   
     7     3    21 1   
     8     3    26 1   
     9     4     5 1   
    10     5     6 1   
    11     5    20 1   
    12     5    27 1   
    13     6     7 1   
    14     6     8 1   
    15     7    13 2   
    16     7    28 1   
    17     8     9 2   
    18     8    10 1   
    19    10    11 1   
    20    10    29 1   
    21    11    12 2   
    22    11    13 1   
    23    13    14 1   
    24    14    15 2   
    25    14    18 1   
    26    15    16 1   
    27    15    30 1   
    28    16    17 2   
    29    16    31 1   
    30    17    18 1   
    31    17    19 1   
    32    20    21 1   
    33    20    32 1   
    34    20    33 1   
    35    21    22 1   
    36    21    34 1   
    37    22    35 1   
@<TRIPOS>SUBSTRUCTURE
     1 BTD         1 TEMP              0 ****  ****    0 ROOT
