@<TRIPOS>MOLECULE
BTD
   35    37     1     0     0
SMALL
abcg2


@<TRIPOS>ATOM
      1 O5           0.7730    -2.5440     6.0270 oh         1 BTD      -0.710000
      2 C5           0.3980    -1.1890     6.0920 c3         1 BTD       0.163600
      3 C4           1.1980    -0.3990     5.0880 c5         1 BTD       0.170300
      4 O4           0.8520    -0.7960     3.7710 os         1 BTD      -0.434000
      5 C1           0.9580     0.2790     2.8850 c5         1 BTD       0.350700
      6 N1          -0.1940     0.2640     1.9790 n          1 BTD      -0.312000
      7 C6           0.0040    -0.0270     0.6650 cc         1 BTD       0.013600
      8 C2          -1.4660     0.4630     2.4770 c          1 BTD       0.625000
      9 O2          -1.6980     0.6990     3.6410 o          1 BTD      -0.555000
     10 N3          -2.4610     0.3750     1.5380 ns         1 BTD      -0.469500
     11 C8          -2.3510     0.1070     0.1870 c          1 BTD       0.598200
     12 O1          -3.3410     0.0620    -0.5150 o          1 BTD      -0.515000
     13 C7          -0.9820    -0.1020    -0.2580 cd         1 BTD      -0.195400
     14 C55         -0.7050    -0.3740    -1.6620 cd         1 BTD      -0.135800
     15 C44         -1.4080    -1.1370    -2.5510 cc         1 BTD      -0.103000
     16 C33         -0.8170    -1.1930    -3.8400 cc         1 BTD      -0.089000
     17 C22          0.3260    -0.4590    -3.9060 cd         1 BTD      -0.170900
     18 S11          0.6890     0.3190    -2.4200 ss         1 BTD       0.217000
     19 BR           1.4440    -0.2440    -5.3730 br         1 BTD      -0.034100
     20 C9           1.1450     1.5510     3.7160 c5         1 BTD      -0.151400
     21 C3           0.9340     1.1050     5.1640 c5         1 BTD       0.138300
     22 O3           1.8210     1.6770     6.0910 oh         1 BTD      -0.710000
     23 HO5          0.2880    -3.0220     6.7060 ho         1 BTD       0.506000
     24 H5'1        -0.6710    -1.0460     5.8840 h1         1 BTD       0.036200
     25 H5'2         0.5960    -0.7590     7.0820 h1         1 BTD       0.036200
     26 H4           2.2720    -0.5710     5.2570 h1         1 BTD       0.076700
     27 H1           1.8170     0.1430     2.2230 h2         1 BTD       0.065700
     28 H6           1.0360    -0.2050     0.3920 h4         1 BTD       0.212000
     29 HN3         -3.3980     0.5270     1.8910 hn         1 BTD       0.344500
     30 H44         -2.3170    -1.6610    -2.2970 ha         1 BTD       0.153000
     31 H33         -1.2220    -1.7570    -4.6670 ha         1 BTD       0.148000
     32 H2'1         2.1740     1.8930     3.5950 hc         1 BTD       0.073700
     33 H2'2         0.4920     2.3670     3.4080 hc         1 BTD       0.073700
     34 H3          -0.1030     1.2840     5.4620 h1         1 BTD       0.071700
     35 HO3          1.5140     2.5660     6.2940 ho         1 BTD       0.512000
@<TRIPOS>BOND
     1     1     2 1   
     2     1    23 1   
     3     2     3 1   
     4     2    24 1   
     5     2    25 1   
     6     3     4 1   
     7     3    21 1   
     8     3    26 1   
     9     4     5 1   
    10     5     6 1   
    11     5    20 1   
    12     5    27 1   
    13     6     7 1   
    14     6     8 1   
    15     7    13 2   
    16     7    28 1   
    17     8     9 2   
    18     8    10 1   
    19    10    11 1   
    20    10    29 1   
    21    11    12 2   
    22    11    13 1   
    23    13    14 1   
    24    14    15 2   
    25    14    18 1   
    26    15    16 1   
    27    15    30 1   
    28    16    17 2   
    29    16    31 1   
    30    17    18 1   
    31    17    19 1   
    32    20    21 1   
    33    20    32 1   
    34    20    33 1   
    35    21    22 1   
    36    21    34 1   
    37    22    35 1   
@<TRIPOS>SUBSTRUCTURE
     1 BTD         1 TEMP              0 ****  ****    0 ROOT
