@<TRIPOS>MOLECULE
BTE
   15    16     1     0     0
SMALL
No Charge or Current Charge


@<TRIPOS>ATOM
      1 N10         -1.7970     2.1300     0.1060 nv         1 BTE      -1.072000
      2 C1          -1.4330     0.8120     0.0620 ca         1 BTE       0.360000
      3 C6          -2.4250    -0.1790     0.0400 ca         1 BTE      -0.230000
      4 C5          -2.0660    -1.5390    -0.0070 ca         1 BTE      -0.044000
      5 C4          -0.7080    -1.9050    -0.0330 ca         1 BTE      -0.130000
      6 C3           0.2800    -0.9070    -0.0130 ca         1 BTE      -0.030000
      7 N9           1.6320    -1.1730    -0.0380 nc         1 BTE      -0.311500
      8 S8           2.3780     0.3420    -0.0010 ss         1 BTE       0.566000
      9 N7           1.0000     1.3180     0.0460 nc         1 BTE      -0.311500
     10 C2          -0.0710     0.4360     0.0330 ca         1 BTE      -0.111000
     11 H1          -1.0740     2.8260    -0.0580 hn         1 BTE       0.472500
     12 H2          -2.7540     2.3920    -0.1210 hn         1 BTE       0.472500
     13 H3          -3.4750     0.0990     0.0620 ha         1 BTE       0.117000
     14 H4          -2.8360    -2.3080    -0.0230 ha         1 BTE       0.113000
     15 H5          -0.4260    -2.9550    -0.0700 ha         1 BTE       0.138000
@<TRIPOS>BOND
     1     1     2 1   
     2     1    11 1   
     3     1    12 1   
     4     2     3 ar  
     5     2    10 ar  
     6     3     4 ar  
     7     3    13 1   
     8     4     5 ar  
     9     4    14 1   
    10     5     6 ar  
    11     5    15 1   
    12     6     7 2   
    13     6    10 ar  
    14     7     8 1   
    15     8     9 1   
    16     9    10 2   
@<TRIPOS>SUBSTRUCTURE
     1 BTE         1 TEMP              0 ****  ****    0 ROOT
