@<TRIPOS>MOLECULE
BTE
   15    16     1     0     0
SMALL
bcc


@<TRIPOS>ATOM
      1 N10         -1.7690     2.1660     0.1580 nv         1 BTE      -0.823200
      2 C1          -1.4660     0.8430     0.0620 ca         1 BTE       0.221600
      3 C6          -2.3910    -0.1740     0.0330 ca         1 BTE      -0.248000
      4 C5          -2.0060    -1.5400    -0.0100 ca         1 BTE      -0.062000
      5 C4          -0.7070    -1.9580    -0.0330 ca         1 BTE      -0.148000
      6 C3           0.2850    -0.9470    -0.0120 ca         1 BTE      -0.030000
      7 N9           1.6030    -1.1110    -0.0340 nc         1 BTE      -0.311500
      8 S8           2.2780     0.3580     0.0020 ss         1 BTE       0.566000
      9 N7           0.9440     1.2660     0.0500 nc         1 BTE      -0.311500
     10 C2          -0.0890     0.4400     0.0370 ca         1 BTE      -0.111000
     11 H1          -1.0680     2.8240    -0.1410 hn         1 BTE       0.417300
     12 H2          -2.7090     2.4410    -0.0770 hn         1 BTE       0.417300
     13 H3          -3.4470     0.0660     0.0460 ha         1 BTE       0.135000
     14 H4          -2.7970    -2.2790    -0.0290 ha         1 BTE       0.131000
     15 H5          -0.4360    -3.0040    -0.0690 ha         1 BTE       0.156000
@<TRIPOS>BOND
     1     1     2 1   
     2     1    11 1   
     3     1    12 1   
     4     2     3 ar  
     5     2    10 ar  
     6     3     4 ar  
     7     3    13 1   
     8     4     5 ar  
     9     4    14 1   
    10     5     6 ar  
    11     5    15 1   
    12     6     7 2   
    13     6    10 ar  
    14     7     8 1   
    15     8     9 1   
    16     9    10 2   
@<TRIPOS>SUBSTRUCTURE
     1 BTE         1 TEMP              0 ****  ****    0 ROOT
