@<TRIPOS>MOLECULE
BTG
   52    54     1     0     0
SMALL
No Charge or Current Charge


@<TRIPOS>ATOM
      1 C13          0.3240     4.1900     0.8640 ca         1 BTG      -0.109000
      2 C15         -1.8780     3.2170     0.5170 ca         1 BTG      -0.085000
      3 C17         -2.2020     0.8800    -0.3650 cp         1 BTG      -0.091000
      4 C20         -3.9240    -1.2460    -1.1120 ca         1 BTG      -0.082000
      5 C21         -4.1260    -0.5970     0.1280 ca         1 BTG      -0.150600
      6 C22         -5.2470    -1.0310     1.0590 c          1 BTG       0.711600
      7 C26          1.9100    -1.3270     0.0840 c6         1 BTG       0.091700
      8 O01          3.3670    -3.2600     0.5890 oh         1 BTG      -0.613000
      9 C02          3.2350    -1.8390     0.7310 c6         1 BTG       0.162300
     10 C03          4.4690    -1.1410     0.0780 c6         1 BTG       0.105300
     11 O04          4.6040    -1.6040    -1.2870 oh         1 BTG      -0.679000
     12 C05          4.2650     0.4100     0.1720 c6         1 BTG       0.151300
     13 C06          5.4320     1.2330    -0.4670 c3         1 BTG       0.168600
     14 O07          5.2650     2.6570    -0.3220 oh         1 BTG      -0.705000
     15 O08          3.0180     0.7900    -0.4630 os         1 BTG      -0.448000
     16 C09          1.8610     0.2260     0.1860 c6         1 BTG       0.382300
     17 O10          0.6630     0.7270    -0.4320 os         1 BTG      -0.310100
     18 C11          0.1140     1.9230    -0.0150 ca         1 BTG       0.114100
     19 C12          0.9190     3.0060     0.4010 ca         1 BTG      -0.175000
     20 C14         -1.0730     4.2950     0.9230 ca         1 BTG      -0.139000
     21 C16         -1.3070     2.0130     0.0360 cp         1 BTG      -0.010000
     22 C18         -2.0340     0.2090    -1.5990 ca         1 BTG      -0.097000
     23 C19         -2.8860    -0.8430    -1.9680 ca         1 BTG      -0.145000
     24 O23         -5.3830    -0.4480     2.1250 o          1 BTG      -0.723000
     25 O24         -5.9760    -1.9490     0.7100 o          1 BTG      -0.723000
     26 C25         -3.2590     0.4650     0.4820 ca         1 BTG      -0.081000
     27 C29         -1.4530    -3.0960     0.8140 c3         1 BTG      -0.180100
     28 O30         -0.1980    -2.8250    -1.2260 o          1 BTG      -0.601100
     29 H131         0.9460     5.0250     1.1790 ha         1 BTG       0.098000
     30 H151        -2.9600     3.3160     0.5670 ha         1 BTG       0.129000
     31 H201        -4.5710    -2.0660    -1.4160 ha         1 BTG       0.127000
     32 H261         1.9440    -1.5690    -0.9880 h1         1 BTG       0.135700
     33 H011         3.7980    -3.3770    -0.2870 ho         1 BTG       0.429000
     34 H021         3.2160    -1.5810     1.8000 h1         1 BTG       0.019700
     35 H031         5.3670    -1.4100     0.6530 h1         1 BTG       0.022700
     36 H041         5.4950    -1.3360    -1.6070 ho         1 BTG       0.492000
     37 H051         4.2120     0.6920     1.2340 h1         1 BTG       0.044700
     38 H062         6.3710     0.9190     0.0090 h1         1 BTG       0.024700
     39 H061         5.5010     0.9740    -1.5310 h1         1 BTG       0.024700
     40 H071         5.9990     3.0840    -0.8210 ho         1 BTG       0.500000
     41 H091         1.8580     0.5090     1.2490 h2         1 BTG       0.018700
     42 H121         2.0030     2.9450     0.3610 ha         1 BTG       0.127000
     43 H141        -1.5350     5.2110     1.2840 ha         1 BTG       0.105000
     44 H181        -1.2410     0.5130    -2.2780 ha         1 BTG       0.102000
     45 H191        -2.7410    -1.3490    -2.9190 ha         1 BTG       0.096000
     46 H251        -3.3950     0.9730     1.4340 ha         1 BTG       0.125000
     47 H293        -1.0820    -3.7340     1.6240 hc         1 BTG       0.067700
     48 H291        -1.8670    -2.2410     1.3600 hc         1 BTG       0.067700
     49 H292        -2.2170    -3.6040     0.2160 hc         1 BTG       0.067700
     50 N27          0.7070    -1.9660     0.6810 ns         1 BTG      -0.496900
     51 H271         0.5590    -1.8760     1.6790 hn         1 BTG       0.306500
     52 C28         -0.2730    -2.6240    -0.0230 c          1 BTG       0.623100
@<TRIPOS>BOND
     1     1    19 ar  
     2     1    20 ar  
     3     1    29 1   
     4     2    20 ar  
     5     2    21 ar  
     6     2    30 1   
     7     3    21 1   
     8     3    22 ar  
     9     3    26 ar  
    10     4     5 ar  
    11     4    23 ar  
    12     4    31 1   
    13     5     6 1   
    14     5    26 ar  
    15     6    24 1   
    16     6    25 1   
    17     7     9 1   
    18     7    16 1   
    19     7    32 1   
    20     7    50 1   
    21     8     9 1   
    22     8    33 1   
    23     9    10 1   
    24     9    34 1   
    25    10    11 1   
    26    10    12 1   
    27    10    35 1   
    28    11    36 1   
    29    12    13 1   
    30    12    15 1   
    31    12    37 1   
    32    13    14 1   
    33    13    38 1   
    34    13    39 1   
    35    14    40 1   
    36    15    16 1   
    37    16    17 1   
    38    16    41 1   
    39    17    18 1   
    40    18    19 ar  
    41    18    21 ar  
    42    19    42 1   
    43    20    43 1   
    44    22    23 ar  
    45    22    44 1   
    46    23    45 1   
    47    26    46 1   
    48    27    47 1   
    49    27    48 1   
    50    27    49 1   
    51    27    52 1   
    52    28    52 2   
    53    50    51 1   
    54    50    52 1   
@<TRIPOS>SUBSTRUCTURE
     1 BTG         1 TEMP              0 ****  ****    0 ROOT
