@<TRIPOS>MOLECULE
BTG
   52    54     1     0     0
SMALL
bcc


@<TRIPOS>ATOM
      1 C13          0.3280     4.0990     0.9350 ca         1 BTG      -0.127000
      2 C15         -1.8250     3.1370     0.5230 ca         1 BTG      -0.103000
      3 C17         -2.1190     0.8370    -0.3680 cp         1 BTG      -0.091000
      4 C20         -3.8800    -1.1930    -1.1280 ca         1 BTG      -0.100000
      5 C21         -4.0620    -0.5550     0.0950 ca         1 BTG      -0.150600
      6 C22         -5.2040    -0.9510     1.0220 c          1 BTG       0.922200
      7 C26          1.8790    -1.2820     0.0050 c6         1 BTG       0.091700
      8 O01          3.2300    -3.1810     0.4520 oh         1 BTG      -0.550800
      9 C02          3.1900    -1.7920     0.6050 c6         1 BTG       0.139100
     10 C03          4.3760    -1.0810    -0.0540 c6         1 BTG       0.082100
     11 O04          4.4360    -1.4750    -1.4030 oh         1 BTG      -0.556800
     12 C05          4.1820     0.4280     0.0890 c6         1 BTG       0.128100
     13 C06          5.2800     1.2350    -0.5650 c3         1 BTG       0.145400
     14 O07          5.0950     2.5910    -0.2340 oh         1 BTG      -0.582800
     15 O08          2.9500     0.8130    -0.4950 os         1 BTG      -0.401600
     16 C09          1.8540     0.2420     0.1500 c6         1 BTG       0.335900
     17 O10          0.6900     0.7170    -0.4350 os         1 BTG      -0.286900
     18 C11          0.1510     1.8780     0.0260 ca         1 BTG       0.114100
     19 C12          0.9340     2.9440     0.4600 ca         1 BTG      -0.193000
     20 C14         -1.0540     4.2000     0.9690 ca         1 BTG      -0.157000
     21 C16         -1.2480     1.9590     0.0490 cp         1 BTG      -0.010000
     22 C18         -1.9510     0.1750    -1.5840 ca         1 BTG      -0.115000
     23 C19         -2.8270    -0.8320    -1.9570 ca         1 BTG      -0.163000
     24 O23         -5.2640    -0.3640     2.1200 o          1 BTG      -0.828300
     25 O24         -5.9830    -1.8280     0.6040 o          1 BTG      -0.828300
     26 C25         -3.1750     0.4530     0.4580 ca         1 BTG      -0.099000
     27 C29         -1.3410    -3.0660     0.8620 c3         1 BTG      -0.180100
     28 O30         -0.0410    -3.0150    -1.1430 o          1 BTG      -0.601100
     29 H131         0.9460     4.9220     1.2710 ha         1 BTG       0.116000
     30 H151        -2.9040     3.2190     0.5400 ha         1 BTG       0.147000
     31 H201        -4.5610    -1.9780    -1.4280 ha         1 BTG       0.145000
     32 H261         1.8430    -1.5350    -1.0580 h1         1 BTG       0.135700
     33 H011         3.9880    -3.5200     0.9390 ho         1 BTG       0.390000
     34 H021         3.2070    -1.5140     1.6710 h1         1 BTG       0.019700
     35 H031         5.2920    -1.3630     0.4850 h1         1 BTG       0.022700
     36 H041         5.3520    -1.4660    -1.6920 ho         1 BTG       0.393000
     37 H051         4.1770     0.6670     1.1660 h1         1 BTG       0.044700
     38 H062         6.2420     0.8540    -0.1990 h1         1 BTG       0.024700
     39 H061         5.2580     1.0760    -1.6490 h1         1 BTG       0.024700
     40 H071         5.7780     3.1020    -0.6780 ho         1 BTG       0.401000
     41 H091         1.8700     0.5080     1.2230 h2         1 BTG       0.018700
     42 H121         2.0130     2.8890     0.4140 ha         1 BTG       0.145000
     43 H141        -1.5300     5.1010     1.3310 ha         1 BTG       0.123000
     44 H181        -1.1510     0.4570    -2.2550 ha         1 BTG       0.120000
     45 H191        -2.6890    -1.3340    -2.9060 ha         1 BTG       0.114000
     46 H251        -3.3070     0.9420     1.4150 ha         1 BTG       0.143000
     47 H293        -1.1750    -4.0800     1.2290 hc         1 BTG       0.067700
     48 H291        -1.5070    -2.4160     1.7200 hc         1 BTG       0.067700
     49 H292        -2.2440    -3.0710     0.2560 hc         1 BTG       0.067700
     50 N27          0.7280    -1.8570     0.6410 ns         1 BTG      -0.563900
     51 H271         0.5380    -1.5930     1.5950 hn         1 BTG       0.306500
     52 C28         -0.1700    -2.6420     0.0120 c          1 BTG       0.690100
@<TRIPOS>BOND
     1     1    19 ar  
     2     1    20 ar  
     3     1    29 1   
     4     2    20 ar  
     5     2    21 ar  
     6     2    30 1   
     7     3    21 1   
     8     3    22 ar  
     9     3    26 ar  
    10     4     5 ar  
    11     4    23 ar  
    12     4    31 1   
    13     5     6 1   
    14     5    26 ar  
    15     6    24 1   
    16     6    25 1   
    17     7     9 1   
    18     7    16 1   
    19     7    32 1   
    20     7    50 1   
    21     8     9 1   
    22     8    33 1   
    23     9    10 1   
    24     9    34 1   
    25    10    11 1   
    26    10    12 1   
    27    10    35 1   
    28    11    36 1   
    29    12    13 1   
    30    12    15 1   
    31    12    37 1   
    32    13    14 1   
    33    13    38 1   
    34    13    39 1   
    35    14    40 1   
    36    15    16 1   
    37    16    17 1   
    38    16    41 1   
    39    17    18 1   
    40    18    19 ar  
    41    18    21 ar  
    42    19    42 1   
    43    20    43 1   
    44    22    23 ar  
    45    22    44 1   
    46    23    45 1   
    47    26    46 1   
    48    27    47 1   
    49    27    48 1   
    50    27    49 1   
    51    27    52 1   
    52    28    52 2   
    53    50    51 1   
    54    50    52 1   
@<TRIPOS>SUBSTRUCTURE
     1 BTG         1 TEMP              0 ****  ****    0 ROOT
