@<TRIPOS>MOLECULE
BTH
   71    74     1     0     0
SMALL
abcg2


@<TRIPOS>ATOM
      1 O40         31.3980    60.9950     4.7800 o          1 BTH      -0.624100
      2 C25         32.2090    61.4020     5.5980 c          1 BTH       0.594100
      3 N4          33.4740    60.9580     5.6250 ns         1 BTH      -0.466900
      4 C33         33.9470    59.9520     4.7020 c3         1 BTH       0.033700
      5 C34         33.1720    58.6500     4.8460 c          1 BTH       0.573100
      6 O39         32.9690    57.9560     3.8740 o          1 BTH      -0.545100
      7 C31         32.7510    58.2360     6.2290 c3         1 BTH      -0.201100
      8 C35         35.4250    59.6810     4.9610 c3         1 BTH      -0.236400
      9 C15         36.3380    60.8960     4.6590 c          1 BTH       0.715000
     10 O37         35.9940    61.6360     3.7210 o          1 BTH      -0.725000
     11 O36         37.3580    60.9990     5.3660 o          1 BTH      -0.725000
     12 C24         31.8140    62.3850     6.7000 c3         1 BTH      -0.078400
     13 C26         31.4550    61.5610     7.9030 cc         1 BTH      -0.193300
     14 S41         32.6460    60.9920     9.0160 ss         1 BTH       0.216000
     15 C27         30.2250    61.0720     8.2290 cd         1 BTH      -0.138000
     16 C28         30.2390    60.2440     9.3850 cd         1 BTH      -0.138000
     17 C14         31.4840    60.1100     9.9150 cc         1 BTH      -0.255000
     18 C23         32.8530    63.4900     6.9380 c3         1 BTH      -0.074400
     19 C22         32.3010    64.7370     7.6240 c3         1 BTH      -0.069400
     20 C9          31.8890    64.5610     9.0800 c3         1 BTH      -0.102400
     21 C10         31.4500    65.8690     9.7320 c3         1 BTH       0.111000
     22 N3          32.4760    66.8920     9.7450 ns         1 BTH      -0.504900
     23 C17         33.5080    66.8770    10.6040 c          1 BTH       0.617700
     24 O38         33.6130    66.0300    11.4850 o          1 BTH      -0.611100
     25 C30         34.5270    67.9550    10.4520 ca         1 BTH      -0.176600
     26 C32         34.6890    68.7110     9.2940 ca         1 BTH      -0.040000
     27 C19         35.6540    69.7010     9.1930 ca         1 BTH      -0.166000
     28 C13         35.3920    68.2060    11.5180 ca         1 BTH      -0.040000
     29 C12         36.3540    69.1890    11.4370 ca         1 BTH      -0.166000
     30 C11         36.5000    69.9590    10.2740 ca         1 BTH       0.326000
     31 N2          37.4950    70.9220    10.2890 nu         1 BTH      -0.932900
     32 C20         37.8270    71.8730     9.3710 ca         1 BTH       0.577900
     33 N1          37.1940    72.0000     8.2400 nb         1 BTH      -0.713000
     34 C16         38.9200    72.7440     9.7160 ca         1 BTH       0.269900
     35 N5          39.3210    73.6850     8.9300 nb         1 BTH      -0.603000
     36 C29         38.6740    73.8380     7.7400 ca         1 BTH       0.175000
     37 C21         37.6030    72.9840     7.4010 ca         1 BTH       0.282000
     38 C7          39.0760    74.8510     6.8510 ca         1 BTH      -0.057000
     39 C8          38.4270    75.0070     5.6530 ca         1 BTH      -0.124000
     40 C18         37.3590    74.1560     5.3120 ca         1 BTH      -0.087000
     41 C6          36.9510    73.1620     6.1660 ca         1 BTH      -0.092000
     42 HN4         34.1180    61.3220     6.3080 hn         1 BTH       0.330500
     43 H33         33.8330    60.3010     3.6730 h1         1 BTH       0.108700
     44 H311        31.8500    58.7760     6.5280 hc         1 BTH       0.052033
     45 H312        32.5300    57.1710     6.2570 hc         1 BTH       0.052033
     46 H313        33.5140    58.4690     6.9720 hc         1 BTH       0.052033
     47 H351        35.7470    58.8600     4.3120 hc         1 BTH       0.036700
     48 H352        35.5770    59.3370     5.9880 hc         1 BTH       0.036700
     49 H24         30.8920    62.8560     6.3500 hc         1 BTH       0.078700
     50 H27         29.3340    61.2980     7.6600 ha         1 BTH       0.135000
     51 H28         29.3600    59.7730     9.8020 ha         1 BTH       0.124000
     52 H14         31.7830    59.5530    10.7900 h4         1 BTH       0.144000
     53 H231        33.2540    63.7930     5.9680 hc         1 BTH       0.063700
     54 H232        33.7090    63.1160     7.5110 hc         1 BTH       0.063700
     55 H221        31.4520    65.1150     7.0440 hc         1 BTH       0.034700
     56 H222        33.0770    65.5050     7.5630 hc         1 BTH       0.034700
     57 H91         32.7100    64.1230     9.6530 hc         1 BTH       0.061200
     58 H92         31.0540    63.8610     9.1590 hc         1 BTH       0.061200
     59 H101        31.1150    65.6790    10.7530 h1         1 BTH       0.043700
     60 H102        30.5980    66.2820     9.1910 h1         1 BTH       0.043700
     61 HN3         32.3830    67.6500     9.0910 hn         1 BTH       0.312500
     62 H32         34.0760    68.5340     8.4200 ha         1 BTH       0.124500
     63 H19         35.7460    70.2610     8.2780 ha         1 BTH       0.130500
     64 H13         35.3070    67.6280    12.4280 ha         1 BTH       0.124500
     65 H12         37.0050    69.3700    12.2850 ha         1 BTH       0.130500
     66 HN2         38.0450    70.9390    11.1340 hn         1 BTH       0.497000
     67 H16         39.4320    72.6190    10.6660 h4         1 BTH       0.024100
     68 H7          39.9010    75.4940     7.1330 ha         1 BTH       0.128000
     69 H8          38.7360    75.7820     4.9640 ha         1 BTH       0.116000
     70 H18         36.8570    74.2880     4.3630 ha         1 BTH       0.117000
     71 H6          36.1300    72.5050     5.9090 ha         1 BTH       0.134000
@<TRIPOS>BOND
     1     1     2 2   
     2     2     3 1   
     3     2    12 1   
     4     3     4 1   
     5     3    42 1   
     6     4     5 1   
     7     4     8 1   
     8     4    43 1   
     9     5     6 2   
    10     5     7 1   
    11     7    44 1   
    12     7    45 1   
    13     7    46 1   
    14     8     9 1   
    15     8    47 1   
    16     8    48 1   
    17     9    10 1   
    18     9    11 1   
    19    12    13 1   
    20    12    18 1   
    21    12    49 1   
    22    13    14 1   
    23    13    15 2   
    24    14    17 1   
    25    15    16 1   
    26    15    50 1   
    27    16    17 2   
    28    16    51 1   
    29    17    52 1   
    30    18    19 1   
    31    18    53 1   
    32    18    54 1   
    33    19    20 1   
    34    19    55 1   
    35    19    56 1   
    36    20    21 1   
    37    20    57 1   
    38    20    58 1   
    39    21    22 1   
    40    21    59 1   
    41    21    60 1   
    42    22    23 1   
    43    22    61 1   
    44    23    24 2   
    45    23    25 1   
    46    25    26 ar  
    47    25    28 ar  
    48    26    27 ar  
    49    26    62 1   
    50    27    30 ar  
    51    27    63 1   
    52    28    29 ar  
    53    28    64 1   
    54    29    30 ar  
    55    29    65 1   
    56    30    31 1   
    57    31    32 1   
    58    31    66 1   
    59    32    33 ar  
    60    32    34 ar  
    61    33    37 ar  
    62    34    35 ar  
    63    34    67 1   
    64    35    36 ar  
    65    36    37 ar  
    66    36    38 ar  
    67    37    41 ar  
    68    38    39 ar  
    69    38    68 1   
    70    39    40 ar  
    71    39    69 1   
    72    40    41 ar  
    73    40    70 1   
    74    41    71 1   
@<TRIPOS>SUBSTRUCTURE
     1 BTH         1 TEMP              0 ****  ****    0 ROOT
