@<TRIPOS>MOLECULE
BTH
   71    74     1     0     0
SMALL
No Charge or Current Charge


@<TRIPOS>ATOM
      1 O40         31.5150    61.5000     4.4400 o          1 BTH      -0.624100
      2 C25         32.1900    61.6100     5.4550 c          1 BTH       0.594100
      3 N4          33.3950    60.9600     5.6000 ns         1 BTH      -0.466900
      4 C33         34.0140    60.0880     4.5830 c3         1 BTH       0.033700
      5 C34         33.2370    58.7430     4.4710 c          1 BTH       0.573100
      6 O39         32.6980    58.3930     3.4260 o          1 BTH      -0.545100
      7 C31         33.1540    57.8640     5.7250 c3         1 BTH      -0.201100
      8 C35         35.5270    59.8960     4.8730 c3         1 BTH      -0.236400
      9 C15         36.2650    61.2370     4.7920 c          1 BTH       0.715000
     10 O37         36.6620    61.6060     3.6980 o          1 BTH      -0.725000
     11 O36         36.3780    61.8920     5.8150 o          1 BTH      -0.725000
     12 C24         31.7470    62.4600     6.6660 c3         1 BTH      -0.078400
     13 C26         31.4400    61.6140     7.8880 cc         1 BTH      -0.193300
     14 S41         32.7030    60.9450     8.9300 ss         1 BTH       0.216000
     15 C27         30.1980    61.2450     8.3440 cd         1 BTH      -0.138000
     16 C28         30.2320    60.4410     9.5140 cd         1 BTH      -0.138000
     17 C14         31.5000    60.1840     9.9650 cc         1 BTH      -0.255000
     18 C23         32.7450    63.6280     6.9320 c3         1 BTH      -0.074400
     19 C22         32.1760    64.8400     7.7160 c3         1 BTH      -0.069400
     20 C9          31.8440    64.5700     9.2050 c3         1 BTH      -0.102400
     21 C10         31.3840    65.8230     9.9810 c3         1 BTH       0.111000
     22 N3          32.4110    66.8670    10.0440 ns         1 BTH      -0.504900
     23 C17         33.5170    66.8380    10.8660 c          1 BTH       0.617700
     24 O38         33.6950    65.9230    11.6600 o          1 BTH      -0.611100
     25 C30         34.4890    67.9920    10.7390 ca         1 BTH      -0.176600
     26 C32         34.2890    69.0540     9.8240 ca         1 BTH      -0.040000
     27 C19         35.2180    70.1060     9.7370 ca         1 BTH      -0.166000
     28 C13         35.6380    68.0240    11.5610 ca         1 BTH      -0.040000
     29 C12         36.5600    69.0800    11.4670 ca         1 BTH      -0.166000
     30 C11         36.3670    70.1200    10.5470 ca         1 BTH       0.326000
     31 N2          37.3000    71.1600    10.5070 nu         1 BTH      -0.932900
     32 C20         37.7180    72.0620     9.5250 ca         1 BTH       0.577900
     33 N1          37.3580    71.7440     8.2670 nb         1 BTH      -0.713000
     34 C16         38.5170    73.2140     9.8100 ca         1 BTH       0.269900
     35 N5          38.9440    74.0680     8.8400 nb         1 BTH      -0.603000
     36 C29         38.5690    73.7540     7.5700 ca         1 BTH       0.175000
     37 C21         37.7750    72.5880     7.2840 ca         1 BTH       0.282000
     38 C7          38.9680    74.5870     6.5060 ca         1 BTH      -0.057000
     39 C8          38.6020    74.2930     5.1820 ca         1 BTH      -0.124000
     40 C18         37.8290    73.1570     4.9030 ca         1 BTH      -0.087000
     41 C6          37.4210    72.3140     5.9500 ca         1 BTH      -0.092000
     42 HN4         33.9080    61.1430     6.4540 hn         1 BTH       0.330500
     43 H33         33.9120    60.5790     3.6050 h1         1 BTH       0.108700
     44 H311        32.8220    58.4680     6.5770 hc         1 BTH       0.052033
     45 H312        32.5200    56.9820     5.5810 hc         1 BTH       0.052033
     46 H313        34.1670    57.5740     6.0260 hc         1 BTH       0.052033
     47 H351        35.8910    59.2220     4.0870 hc         1 BTH       0.036700
     48 H352        35.6080    59.4790     5.8840 hc         1 BTH       0.036700
     49 H24         30.8050    62.9240     6.3510 hc         1 BTH       0.078700
     50 H27         29.2740    61.5400     7.8560 ha         1 BTH       0.135000
     51 H28         29.3380    60.0660    10.0050 ha         1 BTH       0.124000
     52 H14         31.8200    59.6080    10.8230 h4         1 BTH       0.144000
     53 H231        33.0820    64.0100     5.9590 hc         1 BTH       0.063700
     54 H232        33.6490    63.2580     7.4310 hc         1 BTH       0.063700
     55 H221        31.2790    65.2120     7.2070 hc         1 BTH       0.034700
     56 H222        32.9180    65.6460     7.6620 hc         1 BTH       0.034700
     57 H91         32.7180    64.1340     9.7040 hc         1 BTH       0.061200
     58 H92         31.0390    63.8300     9.2710 hc         1 BTH       0.061200
     59 H101        31.1080    65.5360    11.0050 h1         1 BTH       0.043700
     60 H102        30.4910    66.2410     9.5000 h1         1 BTH       0.043700
     61 HN3         32.3260    67.6560     9.4190 hn         1 BTH       0.312500
     62 H32         33.4180    69.0860     9.1750 ha         1 BTH       0.124500
     63 H19         35.0280    70.9180     9.0440 ha         1 BTH       0.130500
     64 H13         35.8220    67.2270    12.2790 ha         1 BTH       0.124500
     65 H12         37.4350    69.0800    12.1110 ha         1 BTH       0.130500
     66 HN2         37.8440    71.2460    11.3630 hn         1 BTH       0.497000
     67 H16         38.8150    73.4500    10.8310 h4         1 BTH       0.024100
     68 H7          39.5680    75.4690     6.7120 ha         1 BTH       0.128000
     69 H8          38.9190    74.9480     4.3720 ha         1 BTH       0.116000
     70 H18         37.5450    72.9280     3.8780 ha         1 BTH       0.117000
     71 H6          36.8220    71.4350     5.7270 ha         1 BTH       0.134000
@<TRIPOS>BOND
     1     1     2 2   
     2     2     3 1   
     3     2    12 1   
     4     3     4 1   
     5     3    42 1   
     6     4     5 1   
     7     4     8 1   
     8     4    43 1   
     9     5     6 2   
    10     5     7 1   
    11     7    44 1   
    12     7    45 1   
    13     7    46 1   
    14     8     9 1   
    15     8    47 1   
    16     8    48 1   
    17     9    10 1   
    18     9    11 1   
    19    12    13 1   
    20    12    18 1   
    21    12    49 1   
    22    13    14 1   
    23    13    15 2   
    24    14    17 1   
    25    15    16 1   
    26    15    50 1   
    27    16    17 2   
    28    16    51 1   
    29    17    52 1   
    30    18    19 1   
    31    18    53 1   
    32    18    54 1   
    33    19    20 1   
    34    19    55 1   
    35    19    56 1   
    36    20    21 1   
    37    20    57 1   
    38    20    58 1   
    39    21    22 1   
    40    21    59 1   
    41    21    60 1   
    42    22    23 1   
    43    22    61 1   
    44    23    24 2   
    45    23    25 1   
    46    25    26 ar  
    47    25    28 ar  
    48    26    27 ar  
    49    26    62 1   
    50    27    30 ar  
    51    27    63 1   
    52    28    29 ar  
    53    28    64 1   
    54    29    30 ar  
    55    29    65 1   
    56    30    31 1   
    57    31    32 1   
    58    31    66 1   
    59    32    33 ar  
    60    32    34 ar  
    61    33    37 ar  
    62    34    35 ar  
    63    34    67 1   
    64    35    36 ar  
    65    36    37 ar  
    66    36    38 ar  
    67    37    41 ar  
    68    38    39 ar  
    69    38    68 1   
    70    39    40 ar  
    71    39    69 1   
    72    40    41 ar  
    73    40    70 1   
    74    41    71 1   
@<TRIPOS>SUBSTRUCTURE
     1 BTH         1 TEMP              0 ****  ****    0 ROOT
