@<TRIPOS>MOLECULE
BTI
   31    32     1     0     0
SMALL
No Charge or Current Charge


@<TRIPOS>ATOM
      1 C11         -5.6980    -0.4320    -0.3540 c          1 BTI       0.573900
      2 O11         -6.3680    -0.7160     0.6330 o          1 BTI      -0.513100
      3 C10         -4.4520     0.4560    -0.2930 c3         1 BTI      -0.204400
      4 C9          -3.1940    -0.3530     0.1040 c3         1 BTI      -0.067400
      5 C8          -1.9140     0.5110     0.1550 c3         1 BTI      -0.077400
      6 C7          -0.6550    -0.2950     0.5530 c3         1 BTI      -0.059400
      7 C2           0.6410     0.5540     0.6520 c5         1 BTI       0.071300
      8 S1           1.1730     1.1850    -1.0050 ss         1 BTI      -0.405000
      9 C6           2.7430     1.7590    -0.2090 c5         1 BTI       0.029600
     10 C5           3.1900     0.6280     0.7780 c5         1 BTI       0.103700
     11 N3           3.8770    -0.3540    -0.0660 ns         1 BTI      -0.523900
     12 C3           3.1830    -1.5060    -0.2100 c          1 BTI       0.612000
     13 O3           3.5290    -2.4530    -0.8890 o          1 BTI      -0.575000
     14 N2           2.0560    -1.4470     0.5330 ns         1 BTI      -0.509900
     15 C4           1.9040    -0.1720     1.2450 c5         1 BTI       0.094700
     16 H11         -5.9670    -0.8150    -1.3630 h4         1 BTI      -0.019800
     17 H102        -4.2770     0.8720    -1.2920 hc         1 BTI       0.068700
     18 H103        -4.6120     1.2560     0.4400 hc         1 BTI       0.068700
     19 H92         -3.3560    -0.8150     1.0870 hc         1 BTI       0.043700
     20 H93         -3.0490    -1.1710    -0.6140 hc         1 BTI       0.043700
     21 H82         -1.7570     0.9730    -0.8280 hc         1 BTI       0.048700
     22 H83         -2.0600     1.3280     0.8720 hc         1 BTI       0.048700
     23 H72         -0.8430    -0.7720     1.5230 hc         1 BTI       0.053200
     24 H73         -0.5190    -1.1070    -0.1720 hc         1 BTI       0.053200
     25 H2           0.4160     1.4260     1.2810 h1         1 BTI       0.069700
     26 H62          3.5060     1.9910    -0.9640 h1         1 BTI       0.077700
     27 H63          2.5330     2.6840     0.3450 h1         1 BTI       0.077700
     28 H5           3.8100     0.9940     1.6080 h1         1 BTI       0.070700
     29 HN3          4.7520    -0.2330    -0.5600 hn         1 BTI       0.342500
     30 HN2          1.4210    -2.2350     0.5430 hn         1 BTI       0.335500
     31 H4           1.8510    -0.3020     2.3350 h1         1 BTI       0.062700
@<TRIPOS>BOND
     1     1     2 2   
     2     1     3 1   
     3     1    16 1   
     4     3     4 1   
     5     3    17 1   
     6     3    18 1   
     7     4     5 1   
     8     4    19 1   
     9     4    20 1   
    10     5     6 1   
    11     5    21 1   
    12     5    22 1   
    13     6     7 1   
    14     6    23 1   
    15     6    24 1   
    16     7     8 1   
    17     7    15 1   
    18     7    25 1   
    19     8     9 1   
    20     9    10 1   
    21     9    26 1   
    22     9    27 1   
    23    10    11 1   
    24    10    15 1   
    25    10    28 1   
    26    11    12 1   
    27    11    29 1   
    28    12    13 2   
    29    12    14 1   
    30    14    15 1   
    31    14    30 1   
    32    15    31 1   
@<TRIPOS>SUBSTRUCTURE
     1 BTI         1 TEMP              0 ****  ****    0 ROOT
