@<TRIPOS>MOLECULE
BTI
   31    32     1     0     0
SMALL
bcc


@<TRIPOS>ATOM
      1 C11         -5.6240    -0.4110    -0.3100 c          1 BTI       0.573900
      2 O11         -6.6680    -0.2630     0.2770 o          1 BTI      -0.513100
      3 C10         -4.4220     0.4680    -0.1760 c3         1 BTI      -0.204400
      4 C9          -3.1590    -0.3490     0.1020 c3         1 BTI      -0.067400
      5 C8          -1.9110     0.5230     0.1520 c3         1 BTI      -0.077400
      6 C7          -0.6590    -0.2850     0.4720 c3         1 BTI      -0.059400
      7 C2           0.5920     0.5650     0.6050 c5         1 BTI       0.023400
      8 S1           1.1080     1.3160    -0.9730 ss         1 BTI      -0.309200
      9 C6           2.6850     1.7780    -0.2110 c5         1 BTI      -0.018300
     10 C5           3.1000     0.6020     0.6820 c5         1 BTI       0.103700
     11 N3           3.8850    -0.3940     0.0020 ns         1 BTI      -0.590900
     12 C3           3.2390    -1.5730    -0.1810 c          1 BTI       0.821500
     13 O3           3.6730    -2.5580    -0.7580 o          1 BTI      -0.650500
     14 N2           2.0160    -1.4570     0.4080 ns         1 BTI      -0.576900
     15 C4           1.8290    -0.2000     1.0880 c5         1 BTI       0.094700
     16 H11         -5.4940    -1.2480    -1.0210 h4         1 BTI      -0.019800
     17 H102        -4.3030     0.9900    -1.1340 hc         1 BTI       0.068700
     18 H103        -4.5880     1.2220     0.5950 hc         1 BTI       0.068700
     19 H92         -3.2700    -0.8830     1.0500 hc         1 BTI       0.043700
     20 H93         -3.0380    -1.1130    -0.6720 hc         1 BTI       0.043700
     21 H82         -1.7930     1.0380    -0.8060 hc         1 BTI       0.048700
     22 H83         -2.0400     1.3040     0.9080 hc         1 BTI       0.048700
     23 H72         -0.8090    -0.8120     1.4210 hc         1 BTI       0.053200
     24 H73         -0.5030    -1.0520    -0.2910 hc         1 BTI       0.053200
     25 H2           0.4030     1.3750     1.3190 h1         1 BTI       0.069700
     26 H62          3.4270     1.9910    -0.9800 h1         1 BTI       0.077700
     27 H63          2.5530     2.6780     0.3910 h1         1 BTI       0.077700
     28 H5           3.6310     0.9850     1.5560 h1         1 BTI       0.070700
     29 HN3          4.7360    -0.1760    -0.4880 hn         1 BTI       0.342500
     30 HN2          1.5040    -2.2820     0.6710 hn         1 BTI       0.335500
     31 H4           1.7650    -0.3410     2.1710 h1         1 BTI       0.062700
@<TRIPOS>BOND
     1     1     2 2   
     2     1     3 1   
     3     1    16 1   
     4     3     4 1   
     5     3    17 1   
     6     3    18 1   
     7     4     5 1   
     8     4    19 1   
     9     4    20 1   
    10     5     6 1   
    11     5    21 1   
    12     5    22 1   
    13     6     7 1   
    14     6    23 1   
    15     6    24 1   
    16     7     8 1   
    17     7    15 1   
    18     7    25 1   
    19     8     9 1   
    20     9    10 1   
    21     9    26 1   
    22     9    27 1   
    23    10    11 1   
    24    10    15 1   
    25    10    28 1   
    26    11    12 1   
    27    11    29 1   
    28    12    13 2   
    29    12    14 1   
    30    14    15 1   
    31    14    30 1   
    32    15    31 1   
@<TRIPOS>SUBSTRUCTURE
     1 BTI         1 TEMP              0 ****  ****    0 ROOT
