@<TRIPOS>MOLECULE
BTJ
  139   142     1     0     0
SMALL
No Charge or Current Charge


@<TRIPOS>ATOM
      1 C1          -3.1090     2.8960    -5.4180 c3         1 BTJ      -0.110100
      2 N1          -2.7250    -0.1500    -5.5280 ns         1 BTJ      -0.482900
      3 O1          -2.3810     0.1980    -3.2970 o          1 BTJ      -0.611100
      4 C2          -3.7500     1.8500    -4.4750 c3         1 BTJ       0.030700
      5 N2           2.4530     2.1290    -1.3260 ns         1 BTJ      -0.474900
      6 O2           0.0380     0.3060    -5.6450 os         1 BTJ      -0.448000
      7 C3          -2.8820     0.5630    -4.3560 c          1 BTJ       0.602100
      8 O3           1.6960     2.0700    -4.0350 os         1 BTJ      -0.443000
      9 C4          -1.8030    -1.2860    -5.6890 c3         1 BTJ       0.093000
     10 O4           0.9930     3.8610    -1.0860 o          1 BTJ      -0.588100
     11 C5          -0.4390    -0.8810    -6.3030 c3         1 BTJ       0.130600
     12 N5          -3.9860     2.4340    -3.1360 ns         1 BTJ      -0.480900
     13 C6           1.3510     0.7440    -6.0480 c3         1 BTJ       0.160600
     14 N6          -7.2720     2.8950    -0.5450 n8         1 BTJ      -1.005200
     15 C7           1.5990     2.1580    -5.4690 c3         1 BTJ       0.156600
     16 C8           1.7470     3.3440    -3.3490 c3         1 BTJ       0.069600
     17 C9           1.6810     3.1590    -1.8170 c          1 BTJ       0.610100
     18 O9          -5.8820     3.6040    -3.6240 o          1 BTJ      -0.624100
     19 C10          2.4130     1.6450     0.0700 c3         1 BTJ       0.041700
     20 O10         -7.2670    -1.1450     4.6010 os         1 BTJ      -0.344100
     21 C11          3.1640     2.6110     1.0330 c          1 BTJ       0.591100
     22 O11         -5.6190     5.1220    -1.2510 oh         1 BTJ      -0.653000
     23 C25          2.9830     0.2040     0.1740 c3         1 BTJ      -0.046100
     24 C39         -5.0380     3.2620    -2.8040 c          1 BTJ       0.561100
     25 C40         -5.0460     3.7870    -1.3390 c3         1 BTJ       0.052300
     26 C41         -5.7960     2.7940    -0.3930 c3         1 BTJ       0.158500
     27 C42         -5.3770     2.9770     1.0920 c3         1 BTJ      -0.011100
     28 C43         -5.8810     1.8690     2.0150 ca         1 BTJ      -0.104300
     29 C44         -6.9080     2.1220     2.9450 ca         1 BTJ      -0.061500
     30 C45         -7.3570     1.0990     3.7990 ca         1 BTJ      -0.174000
     31 C46         -6.7860    -0.1830     3.7370 ca         1 BTJ       0.137100
     32 C47         -5.7540    -0.4400     2.8080 ca         1 BTJ      -0.174000
     33 C48         -5.3050     0.5830     1.9540 ca         1 BTJ      -0.061500
     34 C49         -6.7450    -2.4860     4.6190 c3         1 BTJ       0.211900
     35 C50         -7.4860    -3.2810     5.6870 ca         1 BTJ      -0.093300
     36 C51         -8.6200    -4.0470     5.3460 ca         1 BTJ      -0.086500
     37 C52         -9.3000    -4.7830     6.3310 ca         1 BTJ      -0.115000
     38 C53         -8.8520    -4.7580     7.6630 ca         1 BTJ      -0.101000
     39 C54         -7.7240    -3.9940     8.0100 ca         1 BTJ      -0.115000
     40 C55         -7.0430    -3.2580     7.0250 ca         1 BTJ      -0.086500
     41 N3           2.8840     2.4190     2.3720 ns         1 BTJ      -0.489900
     42 O6           3.9500     3.4710     0.6540 o          1 BTJ      -0.586100
     43 C26          3.5010     3.1690     3.4920 c3         1 BTJ       0.031700
     44 C24          2.4270     3.5150     4.5690 c          1 BTJ       0.590100
     45 O7           1.2720     3.1200     4.5280 o          1 BTJ      -0.584100
     46 N4           2.8310     4.2930     5.6000 nt         1 BTJ      -0.606000
     47 C27          4.7110     2.4010     4.0970 c3         1 BTJ      -0.086400
     48 C28          5.8400     2.0740     3.0910 c3         1 BTJ      -0.072400
     49 C29          7.0470     1.3700     3.7490 c3         1 BTJ      -0.097400
     50 C30          8.1700     1.0430     2.7430 c3         1 BTJ       0.105000
     51 N7           9.3090     0.3850     3.3860 ns         1 BTJ      -0.511900
     52 C32          9.3650    -0.9510     3.7130 c          1 BTJ       0.598100
     53 C31         10.6480    -1.3900     4.4270 c3         1 BTJ      -0.158400
     54 C33         11.5620    -2.2210     3.4930 c3         1 BTJ      -0.064400
     55 O8           8.4480    -1.7240     3.4750 o          1 BTJ      -0.603100
     56 C34         12.8660    -2.6830     4.1810 c3         1 BTJ       0.005700
     57 C35         13.7290    -3.4650     3.2850 c1         1 BTJ      -0.147100
     58 C36         14.4210    -4.1080     2.5270 c1         1 BTJ      -0.241000
     59 H1          -2.9790     2.4890    -6.4280 hc         1 BTJ       0.055700
     60 H1A         -3.7410     3.7890    -5.4970 hc         1 BTJ       0.055700
     61 H31         -2.1250     3.2020    -5.0440 hc         1 BTJ       0.055700
     62 HN1         -3.1790     0.2210    -6.3530 hn         1 BTJ       0.311500
     63 H56         -4.7160     1.5410    -4.8960 h1         1 BTJ       0.076700
     64 HN2          2.9480     1.5800    -2.0200 hn         1 BTJ       0.333500
     65 H4          -1.6340    -1.7590    -4.7150 h1         1 BTJ       0.073200
     66 H4A         -2.2770    -2.0360    -6.3360 h1         1 BTJ       0.073200
     67 H5          -0.5730    -0.6890    -7.3760 h1         1 BTJ       0.027200
     68 H5A          0.2730    -1.7070    -6.1900 h1         1 BTJ       0.027200
     69 HN5         -3.3350     2.1910    -2.3970 hn         1 BTJ       0.344500
     70 H6           2.1250     0.0520    -5.6910 h1         1 BTJ       0.039700
     71 H6A          1.4180     0.8000    -7.1430 h1         1 BTJ       0.039700
     72 HN6         -7.5380     3.8650    -0.3400 hn         1 BTJ       0.405000
     73 HN6A        -7.5150     2.7910    -1.5360 hn         1 BTJ       0.405000
     74 H7           0.7730     2.8160    -5.7670 h1         1 BTJ       0.031200
     75 H7A          2.5290     2.5630    -5.8900 h1         1 BTJ       0.031200
     76 H8           2.6820     3.8700    -3.5830 h1         1 BTJ       0.051200
     77 H8A          0.9040     3.9820    -3.6450 h1         1 BTJ       0.051200
     78 H20          1.3630     1.6260     0.3910 h1         1 BTJ       0.085700
     79 HO11        -6.1530     5.2480    -2.0700 ho         1 BTJ       0.473000
     80 H40         -3.9920     3.8200    -1.0270 h1         1 BTJ       0.077700
     81 H41         -5.5020     1.7750    -0.6870 h1         1 BTJ       0.061700
     82 H42         -4.2820     3.0080     1.1480 hc         1 BTJ       0.054200
     83 H42A        -5.7180     3.9590     1.4450 hc         1 BTJ       0.054200
     84 H44         -7.3610     3.1100     3.0060 ha         1 BTJ       0.111000
     85 H45         -8.1510     1.3020     4.5140 ha         1 BTJ       0.118500
     86 H47         -5.2890    -1.4190     2.7340 ha         1 BTJ       0.118500
     87 H48         -4.5070     0.3770     1.2440 ha         1 BTJ       0.111000
     88 H49         -6.8830    -2.9680     3.6420 h1         1 BTJ       0.039200
     89 H49A        -5.6710    -2.4800     4.8510 h1         1 BTJ       0.039200
     90 H51         -8.9740    -4.0700     4.3170 ha         1 BTJ       0.115000
     91 H52        -10.1740    -5.3730     6.0620 ha         1 BTJ       0.113000
     92 H53         -9.3790    -5.3280     8.4260 ha         1 BTJ       0.112000
     93 H54         -7.3770    -3.9730     9.0410 ha         1 BTJ       0.113000
     94 H55         -6.1710    -2.6670     7.3010 ha         1 BTJ       0.115000
     95 H46          2.1900     1.7150     2.5990 hn         1 BTJ       0.322500
     96 H471         3.8650     4.1320     3.1110 h1         1 BTJ       0.073700
     97 H481         3.7820     4.6290     5.6440 hn         1 BTJ       0.314000
     98 H491         2.1670     4.5390     6.3200 hn         1 BTJ       0.314000
     99 H50          5.1390     2.9920     4.9150 hc         1 BTJ       0.055200
    100 H511         4.3500     1.4660     4.5440 hc         1 BTJ       0.055200
    101 H521         5.4500     1.4270     2.2960 hc         1 BTJ       0.046700
    102 H531         6.1790     3.0030     2.6140 hc         1 BTJ       0.046700
    103 H541         7.4530     2.0110     4.5420 hc         1 BTJ       0.044700
    104 H551         6.7060     0.4440     4.2260 hc         1 BTJ       0.044700
    105 H561         7.7790     0.3910     1.9500 h1         1 BTJ       0.052700
    106 H57          8.5230     1.9710     2.2740 h1         1 BTJ       0.052700
    107 H58         10.1170     0.9470     3.6290 hn         1 BTJ       0.311500
    108 H59         11.2070    -0.5110     4.7680 hc         1 BTJ       0.055200
    109 H60         10.3740    -2.0120     5.2880 hc         1 BTJ       0.055200
    110 H61         11.0090    -3.1000     3.1360 hc         1 BTJ       0.063200
    111 H62         11.8110    -1.6210     2.6080 hc         1 BTJ       0.063200
    112 H63         13.4260    -1.8090     4.5380 hc         1 BTJ       0.053700
    113 H64         12.6240    -3.2920     5.0610 hc         1 BTJ       0.053700
    114 H65         15.0260    -4.6740     1.8460 ha         1 BTJ       0.255000
    115 C12          2.5640    -0.7530    -0.9470 ca         1 BTJ      -0.067300
    116 C13          3.5010    -1.6700    -1.4570 ca         1 BTJ      -0.116000
    117 C14          3.1500    -2.5540    -2.4910 ca         1 BTJ      -0.057000
    118 C15          1.8480    -2.5440    -3.0340 ca         1 BTJ      -0.175600
    119 C16          0.9120    -1.6120    -2.5320 ca         1 BTJ      -0.057000
    120 C17          1.2620    -0.7390    -1.4880 ca         1 BTJ      -0.116000
    121 C18          1.5030    -3.4920    -4.1610 c          1 BTJ       0.595300
    122 C19          0.0890    -4.0150    -4.3010 ca         1 BTJ      -0.171600
    123 C20         -0.3880    -4.4080    -5.5720 ca         1 BTJ      -0.066500
    124 C21         -1.6980    -4.8950    -5.7240 ca         1 BTJ      -0.125500
    125 C22         -2.5410    -5.0110    -4.6090 ca         1 BTJ      -0.088000
    126 C23         -2.0690    -4.6500    -3.3370 ca         1 BTJ      -0.125500
    127 C37         -0.7600    -4.1630    -3.1790 ca         1 BTJ      -0.066500
    128 O5           2.3680    -3.8350    -4.9600 o          1 BTJ      -0.530100
    129 H571         4.0780     0.2790     0.1880 hc         1 BTJ       0.061200
    130 H581         2.7010    -0.2230     1.1440 hc         1 BTJ       0.061200
    131 H591         4.5110    -1.7010    -1.0540 ha         1 BTJ       0.120000
    132 H601         3.8950    -3.2520    -2.8680 ha         1 BTJ       0.136000
    133 H611        -0.0890    -1.5480    -2.9530 ha         1 BTJ       0.136000
    134 H621         0.5160    -0.0410    -1.1150 ha         1 BTJ       0.120000
    135 H631         0.2520    -4.3240    -6.4480 ha         1 BTJ       0.127000
    136 H641        -2.0580    -5.1850    -6.7090 ha         1 BTJ       0.118500
    137 H651        -3.5550    -5.3890    -4.7270 ha         1 BTJ       0.116000
    138 H66         -2.7160    -4.7540    -2.4690 ha         1 BTJ       0.118500
    139 H67         -0.4090    -3.9150    -2.1800 ha         1 BTJ       0.127000
@<TRIPOS>BOND
     1     1     4 1   
     2     1    59 1   
     3     1    60 1   
     4     1    61 1   
     5     2     7 1   
     6     2     9 1   
     7     2    62 1   
     8     3     7 2   
     9     4     7 1   
    10     4    12 1   
    11     4    63 1   
    12     5    17 1   
    13     5    19 1   
    14     5    64 1   
    15     6    11 1   
    16     6    13 1   
    17     8    15 1   
    18     8    16 1   
    19     9    11 1   
    20     9    65 1   
    21     9    66 1   
    22    10    17 2   
    23    11    67 1   
    24    11    68 1   
    25    12    24 1   
    26    12    69 1   
    27    13    15 1   
    28    13    70 1   
    29    13    71 1   
    30    14    26 1   
    31    14    72 1   
    32    14    73 1   
    33    15    74 1   
    34    15    75 1   
    35    16    17 1   
    36    16    76 1   
    37    16    77 1   
    38    18    24 2   
    39    19    21 1   
    40    19    23 1   
    41    19    78 1   
    42    20    31 1   
    43    20    34 1   
    44    21    41 1   
    45    21    42 2   
    46    22    25 1   
    47    22    79 1   
    48    23   115 1   
    49    23   129 1   
    50    23   130 1   
    51    24    25 1   
    52    25    26 1   
    53    25    80 1   
    54    26    27 1   
    55    26    81 1   
    56    27    28 1   
    57    27    82 1   
    58    27    83 1   
    59    28    29 ar  
    60    28    33 ar  
    61    29    30 ar  
    62    29    84 1   
    63    30    31 ar  
    64    30    85 1   
    65    31    32 ar  
    66    32    33 ar  
    67    32    86 1   
    68    33    87 1   
    69    34    35 1   
    70    34    88 1   
    71    34    89 1   
    72    35    36 ar  
    73    35    40 ar  
    74    36    37 ar  
    75    36    90 1   
    76    37    38 ar  
    77    37    91 1   
    78    38    39 ar  
    79    38    92 1   
    80    39    40 ar  
    81    39    93 1   
    82    40    94 1   
    83    41    43 1   
    84    41    95 1   
    85    43    44 1   
    86    43    47 1   
    87    43    96 1   
    88    44    45 2   
    89    44    46 1   
    90    46    97 1   
    91    46    98 1   
    92    47    48 1   
    93    47    99 1   
    94    47   100 1   
    95    48    49 1   
    96    48   101 1   
    97    48   102 1   
    98    49    50 1   
    99    49   103 1   
   100    49   104 1   
   101    50    51 1   
   102    50   105 1   
   103    50   106 1   
   104    51    52 1   
   105    51   107 1   
   106    52    53 1   
   107    52    55 2   
   108    53    54 1   
   109    53   108 1   
   110    53   109 1   
   111    54    56 1   
   112    54   110 1   
   113    54   111 1   
   114    56    57 1   
   115    56   112 1   
   116    56   113 1   
   117    57    58 3   
   118    58   114 1   
   119   115   116 ar  
   120   115   120 ar  
   121   116   117 ar  
   122   116   131 1   
   123   117   118 ar  
   124   117   132 1   
   125   118   119 ar  
   126   118   121 1   
   127   119   120 ar  
   128   119   133 1   
   129   120   134 1   
   130   121   122 1   
   131   121   128 2   
   132   122   123 ar  
   133   122   127 ar  
   134   123   124 ar  
   135   123   135 1   
   136   124   125 ar  
   137   124   136 1   
   138   125   126 ar  
   139   125   137 1   
   140   126   127 ar  
   141   126   138 1   
   142   127   139 1   
@<TRIPOS>SUBSTRUCTURE
     1 BTJ         1 TEMP              0 ****  ****    0 ROOT
