@<TRIPOS>MOLECULE
BTJ
  139   142     1     0     0
SMALL
abcg2


@<TRIPOS>ATOM
      1 C1          -2.4280     3.4590    -3.7060 c3         1 BTJ      -0.110100
      2 N1          -3.4850     0.6200    -4.6110 ns         1 BTJ      -0.482900
      3 O1          -2.3400     0.4180    -2.6630 o          1 BTJ      -0.611100
      4 C2          -3.4440     2.4960    -3.0900 c3         1 BTJ       0.030700
      5 N2           2.8590     2.9710    -3.1640 ns         1 BTJ      -0.474900
      6 O2          -1.0540     0.7940    -5.8820 os         1 BTJ      -0.448000
      7 C3          -3.0400     1.0650    -3.4280 c          1 BTJ       0.602100
      8 O3           1.0020     2.6060    -5.1910 os         1 BTJ      -0.443000
      9 C4          -2.9240    -0.5320    -5.2790 c3         1 BTJ       0.093000
     10 O4           1.1990     4.2620    -2.3480 o          1 BTJ      -0.588100
     11 C5          -1.9770    -0.1250    -6.3950 c3         1 BTJ       0.130600
     12 N5          -3.5040     2.6140    -1.6510 ns         1 BTJ      -0.480900
     13 C6          -0.0710     1.2020    -6.7970 c3         1 BTJ       0.160600
     14 N6          -6.2860     2.0610     0.5450 n8         1 BTJ      -1.005200
     15 C7           0.3950     2.5970    -6.4580 c3         1 BTJ       0.156600
     16 C8           1.2870     3.8980    -4.7270 c3         1 BTJ       0.069600
     17 C9           1.7740     3.7500    -3.2960 c          1 BTJ       0.610100
     18 O9          -4.9060     4.3860    -1.5830 o          1 BTJ      -0.624100
     19 C10          3.3260     2.4950    -1.8940 c3         1 BTJ       0.041700
     20 O10         -6.6050    -2.9240     4.4260 os         1 BTJ      -0.344100
     21 C11          4.3520     3.4520    -1.2890 c          1 BTJ       0.591100
     22 O11         -4.8220     4.6200     1.0210 oh         1 BTJ      -0.653000
     23 C25          3.9600     1.1030    -2.0370 c3         1 BTJ      -0.046100
     24 C39         -4.2310     3.5340    -1.0150 c          1 BTJ       0.561100
     25 C40         -4.2070     3.4720     0.5100 c3         1 BTJ       0.052300
     26 C41         -4.9190     2.1930     1.0050 c3         1 BTJ       0.158500
     27 C42         -4.8740     2.1280     2.5360 c3         1 BTJ      -0.011100
     28 C43         -5.3140     0.7920     3.0610 ca         1 BTJ      -0.104300
     29 C44         -6.6480     0.5260     3.3650 ca         1 BTJ      -0.061500
     30 C45         -7.0510    -0.7160     3.8200 ca         1 BTJ      -0.174000
     31 C46         -6.1200    -1.7440     3.9810 ca         1 BTJ       0.137100
     32 C47         -4.7830    -1.4990     3.6830 ca         1 BTJ      -0.174000
     33 C48         -4.4000    -0.2400     3.2310 ca         1 BTJ      -0.061500
     34 C49         -5.6930    -3.9840     4.6650 c3         1 BTJ       0.211900
     35 C50         -6.4720    -5.1440     5.2080 ca         1 BTJ      -0.093300
     36 C51         -6.5480    -6.3390     4.5020 ca         1 BTJ      -0.086500
     37 C52         -7.2670    -7.4160     5.0070 ca         1 BTJ      -0.115000
     38 C53         -7.9240    -7.3010     6.2230 ca         1 BTJ      -0.101000
     39 C54         -7.8560    -6.1080     6.9340 ca         1 BTJ      -0.115000
     40 C55         -7.1330    -5.0370     6.4310 ca         1 BTJ      -0.086500
     41 N3           4.5570     3.2860     0.0280 ns         1 BTJ      -0.489900
     42 O6           4.9560     4.2700    -1.9580 o          1 BTJ      -0.586100
     43 C26          5.4860     4.1090     0.7550 c3         1 BTJ       0.031700
     44 C24          4.9530     5.5390     0.8740 c          1 BTJ       0.590100
     45 O7           3.7580     5.7790     0.8920 o          1 BTJ      -0.584100
     46 N4           5.9040     6.4720     1.0040 nt         1 BTJ      -0.606000
     47 C27          5.7410     3.5280     2.1480 c3         1 BTJ      -0.086400
     48 C28          6.3490     2.1300     2.1120 c3         1 BTJ      -0.072400
     49 C29          6.7010     1.6270     3.5060 c3         1 BTJ      -0.097400
     50 C30          7.2550     0.2110     3.4700 c3         1 BTJ       0.105000
     51 N7           7.5910    -0.2400     4.8040 ns         1 BTJ      -0.511900
     52 C32          7.8590    -1.5190     5.1030 c          1 BTJ       0.598100
     53 C31          8.1240    -1.7990     6.5680 c3         1 BTJ      -0.158400
     54 C33          9.2090    -2.8480     6.7770 c3         1 BTJ      -0.064400
     55 O8           7.8680    -2.4060     4.2580 o          1 BTJ      -0.603100
     56 C34          9.4110    -3.1370     8.2670 c3         1 BTJ       0.005700
     57 C35         10.4280    -4.1520     8.5070 c1         1 BTJ      -0.147100
     58 C36         11.2710    -4.9900     8.6880 c1         1 BTJ      -0.241000
     59 H1          -2.4310     3.3770    -4.7930 hc         1 BTJ       0.055700
     60 H1A         -2.6750     4.4850    -3.4390 hc         1 BTJ       0.055700
     61 H31         -1.4200     3.2370    -3.3560 hc         1 BTJ       0.055700
     62 HN1         -4.0400     1.2480    -5.1720 hn         1 BTJ       0.311500
     63 H56         -4.4340     2.7130    -3.4960 h1         1 BTJ       0.076700
     64 HN2          3.2950     2.6060    -3.9970 hn         1 BTJ       0.333500
     65 H4          -2.4050    -1.1370    -4.5390 h1         1 BTJ       0.073200
     66 H4A         -3.7230    -1.1480    -5.6950 h1         1 BTJ       0.073200
     67 H5          -2.5410     0.3170    -7.2310 h1         1 BTJ       0.027200
     68 H5A         -1.4920    -1.0290    -6.7870 h1         1 BTJ       0.027200
     69 HN5         -2.9120     1.9880    -1.1230 hn         1 BTJ       0.344500
     70 H6           0.7740     0.5000    -6.7980 h1         1 BTJ       0.039700
     71 H6A         -0.4640     1.2350    -7.8220 h1         1 BTJ       0.039700
     72 HN6         -6.8060     2.9070     0.7410 hn         1 BTJ       0.405000
     73 HN6A        -6.3240     1.9130    -0.4550 hn         1 BTJ       0.405000
     74 H7          -0.4660     3.2800    -6.4790 h1         1 BTJ       0.031200
     75 H7A          1.0930     2.9360    -7.2360 h1         1 BTJ       0.031200
     76 H8           2.0530     4.3910    -5.3430 h1         1 BTJ       0.051200
     77 H8A          0.3990     4.5400    -4.7300 h1         1 BTJ       0.051200
     78 H20          2.4700     2.4310    -1.2160 h1         1 BTJ       0.085700
     79 HO11        -5.2490     5.0620     0.2720 ho         1 BTJ       0.473000
     80 H40         -3.1590     3.4380     0.8400 h1         1 BTJ       0.077700
     81 H41         -4.3570     1.3340     0.6220 h1         1 BTJ       0.061700
     82 H42         -3.8540     2.3340     2.8720 hc         1 BTJ       0.054200
     83 H42A        -5.5040     2.9220     2.9460 hc         1 BTJ       0.054200
     84 H44         -7.3890     1.3070     3.2510 ha         1 BTJ       0.111000
     85 H45         -8.0930    -0.9010     4.0550 ha         1 BTJ       0.118500
     86 H47         -4.0270    -2.2640     3.7960 ha         1 BTJ       0.118500
     87 H48         -3.3530    -0.0680     3.0090 ha         1 BTJ       0.111000
     88 H49         -5.1810    -4.2710     3.7400 h1         1 BTJ       0.039200
     89 H49A        -4.9270    -3.6680     5.3830 h1         1 BTJ       0.039200
     90 H51         -6.0410    -6.4310     3.5490 ha         1 BTJ       0.115000
     91 H52         -7.3130    -8.3410     4.4480 ha         1 BTJ       0.113000
     92 H53         -8.4890    -8.1360     6.6180 ha         1 BTJ       0.112000
     93 H54         -8.3650    -6.0140     7.8850 ha         1 BTJ       0.113000
     94 H55         -7.0800    -4.1140     6.9960 ha         1 BTJ       0.115000
     95 H46          3.9110     2.7180     0.5540 hn         1 BTJ       0.322500
     96 H471         6.4350     4.1280     0.2100 h1         1 BTJ       0.073700
     97 H481         6.8820     6.2460     0.9480 hn         1 BTJ       0.314000
     98 H491         5.6600     7.4390     1.1390 hn         1 BTJ       0.314000
     99 H50          6.4190     4.2020     2.6770 hc         1 BTJ       0.055200
    100 H511         4.8070     3.5190     2.7190 hc         1 BTJ       0.055200
    101 H521         5.6570     1.4270     1.6410 hc         1 BTJ       0.046700
    102 H531         7.2470     2.1410     1.4870 hc         1 BTJ       0.046700
    103 H541         7.4340     2.3000     3.9620 hc         1 BTJ       0.044700
    104 H551         5.8120     1.6510     4.1430 hc         1 BTJ       0.044700
    105 H561         6.5130    -0.4640     3.0360 h1         1 BTJ       0.052700
    106 H57          8.1350     0.1730     2.8200 h1         1 BTJ       0.052700
    107 H58          7.6480     0.4500     5.5360 hn         1 BTJ       0.311500
    108 H59          8.3800    -0.8780     7.0980 hc         1 BTJ       0.055200
    109 H60          7.1840    -2.1530     7.0060 hc         1 BTJ       0.055200
    110 H61          8.9370    -3.7700     6.2610 hc         1 BTJ       0.063200
    111 H62         10.1520    -2.5040     6.3450 hc         1 BTJ       0.063200
    112 H63          9.6930    -2.2190     8.7910 hc         1 BTJ       0.053700
    113 H64          8.4670    -3.4650     8.7110 hc         1 BTJ       0.053700
    114 H65         12.0180    -5.7320     8.8560 ha         1 BTJ       0.255000
    115 C12          3.1310     0.1130    -2.8120 ca         1 BTJ      -0.067300
    116 C13          3.7760    -0.8830    -3.5450 ca         1 BTJ      -0.116000
    117 C14          3.0560    -1.8200    -4.2630 ca         1 BTJ      -0.057000
    118 C15          1.6610    -1.7930    -4.2590 ca         1 BTJ      -0.175600
    119 C16          1.0110    -0.7900    -3.5410 ca         1 BTJ      -0.057000
    120 C17          1.7400     0.1460    -2.8250 ca         1 BTJ      -0.116000
    121 C18          0.9300    -2.7910    -5.0810 c          1 BTJ       0.595300
    122 C19         -0.4230    -3.2510    -4.6620 ca         1 BTJ      -0.171600
    123 C20         -1.2870    -3.7590    -5.6350 ca         1 BTJ      -0.066500
    124 C21         -2.5440    -4.2190    -5.2850 ca         1 BTJ      -0.125500
    125 C22         -2.9460    -4.2010    -3.9540 ca         1 BTJ      -0.088000
    126 C23         -2.0840    -3.7230    -2.9770 ca         1 BTJ      -0.125500
    127 C37         -0.8290    -3.2470    -3.3280 ca         1 BTJ      -0.066500
    128 O5           1.4320    -3.2300    -6.0990 o          1 BTJ      -0.530100
    129 H571         4.9390     1.1980    -2.5160 hc         1 BTJ       0.061200
    130 H581         4.1550     0.7070    -1.0370 hc         1 BTJ       0.061200
    131 H591         4.8580    -0.9230    -3.5570 ha         1 BTJ       0.120000
    132 H601         3.5820    -2.5830    -4.8210 ha         1 BTJ       0.136000
    133 H611        -0.0670    -0.7050    -3.5520 ha         1 BTJ       0.136000
    134 H621         1.1990     0.9140    -2.2890 ha         1 BTJ       0.120000
    135 H631        -0.9790    -3.7770    -6.6730 ha         1 BTJ       0.127000
    136 H641        -3.2130    -4.5940    -6.0480 ha         1 BTJ       0.118500
    137 H651        -3.9280    -4.5620    -3.6790 ha         1 BTJ       0.116000
    138 H66         -2.3880    -3.7200    -1.9390 ha         1 BTJ       0.118500
    139 H67         -0.1630    -2.8910    -2.5540 ha         1 BTJ       0.127000
@<TRIPOS>BOND
     1     1     4 1   
     2     1    59 1   
     3     1    60 1   
     4     1    61 1   
     5     2     7 1   
     6     2     9 1   
     7     2    62 1   
     8     3     7 2   
     9     4     7 1   
    10     4    12 1   
    11     4    63 1   
    12     5    17 1   
    13     5    19 1   
    14     5    64 1   
    15     6    11 1   
    16     6    13 1   
    17     8    15 1   
    18     8    16 1   
    19     9    11 1   
    20     9    65 1   
    21     9    66 1   
    22    10    17 2   
    23    11    67 1   
    24    11    68 1   
    25    12    24 1   
    26    12    69 1   
    27    13    15 1   
    28    13    70 1   
    29    13    71 1   
    30    14    26 1   
    31    14    72 1   
    32    14    73 1   
    33    15    74 1   
    34    15    75 1   
    35    16    17 1   
    36    16    76 1   
    37    16    77 1   
    38    18    24 2   
    39    19    21 1   
    40    19    23 1   
    41    19    78 1   
    42    20    31 1   
    43    20    34 1   
    44    21    41 1   
    45    21    42 2   
    46    22    25 1   
    47    22    79 1   
    48    23   115 1   
    49    23   129 1   
    50    23   130 1   
    51    24    25 1   
    52    25    26 1   
    53    25    80 1   
    54    26    27 1   
    55    26    81 1   
    56    27    28 1   
    57    27    82 1   
    58    27    83 1   
    59    28    29 ar  
    60    28    33 ar  
    61    29    30 ar  
    62    29    84 1   
    63    30    31 ar  
    64    30    85 1   
    65    31    32 ar  
    66    32    33 ar  
    67    32    86 1   
    68    33    87 1   
    69    34    35 1   
    70    34    88 1   
    71    34    89 1   
    72    35    36 ar  
    73    35    40 ar  
    74    36    37 ar  
    75    36    90 1   
    76    37    38 ar  
    77    37    91 1   
    78    38    39 ar  
    79    38    92 1   
    80    39    40 ar  
    81    39    93 1   
    82    40    94 1   
    83    41    43 1   
    84    41    95 1   
    85    43    44 1   
    86    43    47 1   
    87    43    96 1   
    88    44    45 2   
    89    44    46 1   
    90    46    97 1   
    91    46    98 1   
    92    47    48 1   
    93    47    99 1   
    94    47   100 1   
    95    48    49 1   
    96    48   101 1   
    97    48   102 1   
    98    49    50 1   
    99    49   103 1   
   100    49   104 1   
   101    50    51 1   
   102    50   105 1   
   103    50   106 1   
   104    51    52 1   
   105    51   107 1   
   106    52    53 1   
   107    52    55 2   
   108    53    54 1   
   109    53   108 1   
   110    53   109 1   
   111    54    56 1   
   112    54   110 1   
   113    54   111 1   
   114    56    57 1   
   115    56   112 1   
   116    56   113 1   
   117    57    58 3   
   118    58   114 1   
   119   115   116 ar  
   120   115   120 ar  
   121   116   117 ar  
   122   116   131 1   
   123   117   118 ar  
   124   117   132 1   
   125   118   119 ar  
   126   118   121 1   
   127   119   120 ar  
   128   119   133 1   
   129   120   134 1   
   130   121   122 1   
   131   121   128 2   
   132   122   123 ar  
   133   122   127 ar  
   134   123   124 ar  
   135   123   135 1   
   136   124   125 ar  
   137   124   136 1   
   138   125   126 ar  
   139   125   137 1   
   140   126   127 ar  
   141   126   138 1   
   142   127   139 1   
@<TRIPOS>SUBSTRUCTURE
     1 BTJ         1 TEMP              0 ****  ****    0 ROOT
