@<TRIPOS>MOLECULE
BTK
   34    33     1     0     0
SMALL
No Charge or Current Charge


@<TRIPOS>ATOM
      1 C           -4.2700   -10.5510    -6.0150 c          1 BTK       0.929600
      2 N           -5.4660    -8.2820    -5.3480 n8         1 BTK      -0.899800
      3 O           -4.1950   -10.7110    -7.2310 o          1 BTK      -0.836300
      4 CA          -4.1750    -9.0630    -5.4390 c3         1 BTK       0.022500
      5 CB          -3.4150    -9.0130    -4.0820 c3         1 BTK      -0.050400
      6 CD          -2.0960    -7.5620    -2.3690 c3         1 BTK      -0.096400
      7 CE          -2.7810    -8.0880    -1.0860 c3         1 BTK       0.106000
      8 CG          -2.9720    -7.5910    -3.6470 c3         1 BTK      -0.079400
      9 NZ          -4.0120    -7.3640    -0.7590 ns         1 BTK      -0.562900
     10 CAA         -5.2610    -4.8260     2.4860 c3         1 BTK      -0.090100
     11 OAD         -3.0550    -5.5050     0.1430 o          1 BTK      -0.629100
     12 CAF         -6.0140    -5.6770     1.4420 c3         1 BTK      -0.067400
     13 CAJ         -5.4770    -5.5450    -0.0060 c3         1 BTK      -0.166400
     14 CAN         -4.0640    -6.1180    -0.1780 c          1 BTK       0.666100
     15 OXT         -4.4180   -11.4960    -5.2430 o          1 BTK      -0.836300
     16 H           -5.2580    -7.3260    -5.0440 hn         1 BTK       0.326800
     17 H2          -5.8610    -8.1750    -6.2890 hn         1 BTK       0.326800
     18 HA          -3.5550    -8.5090    -6.1570 h1         1 BTK      -0.004300
     19 HB2         -4.0430    -9.4610    -3.3020 hc         1 BTK       0.042200
     20 HB3         -2.5190    -9.6400    -4.1640 hc         1 BTK       0.042200
     21 HD2         -1.7660    -6.5310    -2.1960 hc         1 BTK       0.038200
     22 HD3         -1.1860    -8.1490    -2.5460 hc         1 BTK       0.038200
     23 HE2         -3.0230    -9.1520    -1.2070 h1         1 BTK       0.048200
     24 HE3         -2.0830    -8.0040    -0.2420 h1         1 BTK       0.048200
     25 HG2         -2.4000    -7.1360    -4.4650 hc         1 BTK       0.028200
     26 HG3         -3.8530    -6.9560    -3.4950 hc         1 BTK       0.028200
     27 HNZ         -4.9000    -7.7880    -0.9980 hn         1 BTK       0.323500
     28 HAA         -5.7480    -4.9090     3.4650 hc         1 BTK       0.033700
     29 HAAA        -4.2240    -5.1630     2.5960 hc         1 BTK       0.033700
     30 HAAB        -5.2560    -3.7690     2.1960 hc         1 BTK       0.033700
     31 HAF         -5.9860    -6.7310     1.7470 hc         1 BTK       0.039200
     32 HAFA        -7.0700    -5.3770     1.4500 hc         1 BTK       0.039200
     33 HAJ         -6.1700    -6.0890    -0.6590 hc         1 BTK       0.061700
     34 HAJA        -5.4670    -4.4840    -0.2810 hc         1 BTK       0.061700
@<TRIPOS>BOND
     1     1     3 1   
     2     1     4 1   
     3     1    15 1   
     4     2     4 1   
     5     2    16 1   
     6     2    17 1   
     7     4     5 1   
     8     4    18 1   
     9     5     8 1   
    10     5    19 1   
    11     5    20 1   
    12     6     7 1   
    13     6     8 1   
    14     6    21 1   
    15     6    22 1   
    16     7     9 1   
    17     7    23 1   
    18     7    24 1   
    19     8    25 1   
    20     8    26 1   
    21     9    14 1   
    22     9    27 1   
    23    10    12 1   
    24    10    28 1   
    25    10    29 1   
    26    10    30 1   
    27    11    14 2   
    28    12    13 1   
    29    12    31 1   
    30    12    32 1   
    31    13    14 1   
    32    13    33 1   
    33    13    34 1   
@<TRIPOS>SUBSTRUCTURE
     1 BTK         1 TEMP              0 ****  ****    0 ROOT
