@<TRIPOS>MOLECULE
BTK
   34    33     1     0     0
SMALL
bcc


@<TRIPOS>ATOM
      1 C           -4.6750   -10.5450    -5.3980 c          1 BTK       0.929600
      2 N           -5.3260    -8.1630    -5.1750 n8         1 BTK      -0.899800
      3 O           -5.8080   -10.6930    -5.9000 o          1 BTK      -0.836300
      4 CA          -4.2020    -9.0900    -5.1370 c3         1 BTK       0.022500
      5 CB          -3.4460    -8.9540    -3.8190 c3         1 BTK      -0.050400
      6 CD          -1.9770    -7.4360    -2.3670 c3         1 BTK      -0.096400
      7 CE          -2.6750    -7.7520    -1.0460 c3         1 BTK       0.106000
      8 CG          -2.8660    -7.5610    -3.6020 c3         1 BTK      -0.079400
      9 NZ          -3.8640    -6.9630    -0.8050 ns         1 BTK      -0.562900
     10 CAA         -5.5170    -5.8470     2.2310 c3         1 BTK      -0.090100
     11 OAD         -2.8130    -5.1470     0.0250 o          1 BTK      -0.629100
     12 CAF         -6.1160    -5.7750     0.8340 c3         1 BTK      -0.067400
     13 CAJ         -5.2120    -5.0670    -0.1780 c3         1 BTK      -0.166400
     14 CAN         -3.8460    -5.7110    -0.3130 c          1 BTK       0.666100
     15 OXT         -3.8610   -11.4490    -5.1240 o          1 BTK      -0.836300
     16 H           -5.0150    -7.2480    -5.4720 hn         1 BTK       0.326800
     17 H2          -5.9790    -8.4940    -5.8730 hn         1 BTK       0.326800
     18 HA          -3.4740    -8.8800    -5.9430 h1         1 BTK      -0.004300
     19 HB2         -4.1250    -9.2100    -2.9980 hc         1 BTK       0.042200
     20 HB3         -2.6340    -9.6850    -3.7960 hc         1 BTK       0.042200
     21 HD2         -1.5660    -6.4250    -2.3190 hc         1 BTK       0.038200
     22 HD3         -1.1220    -8.1130    -2.4580 hc         1 BTK       0.038200
     23 HE2         -2.9730    -8.8000    -1.0150 h1         1 BTK       0.048200
     24 HE3         -1.9790    -7.6030    -0.2200 h1         1 BTK       0.048200
     25 HG2         -2.2730    -7.2810    -4.4800 hc         1 BTK       0.028200
     26 HG3         -3.6720    -6.8240    -3.5390 hc         1 BTK       0.028200
     27 HNZ         -4.7390    -7.3290    -1.1440 hn         1 BTK       0.323500
     28 HAA         -6.2130    -6.3100     2.9300 hc         1 BTK       0.033700
     29 HAAA        -4.5980    -6.4360     2.2500 hc         1 BTK       0.033700
     30 HAAB        -5.2810    -4.8510     2.6110 hc         1 BTK       0.033700
     31 HAF         -6.3570    -6.7810     0.4810 hc         1 BTK       0.039200
     32 HAFA        -7.0650    -5.2360     0.8740 hc         1 BTK       0.039200
     33 HAJ         -5.7010    -5.0550    -1.1570 hc         1 BTK       0.061700
     34 HAJA        -5.0680    -4.0280     0.1210 hc         1 BTK       0.061700
@<TRIPOS>BOND
     1     1     3 1   
     2     1     4 1   
     3     1    15 1   
     4     2     4 1   
     5     2    16 1   
     6     2    17 1   
     7     4     5 1   
     8     4    18 1   
     9     5     8 1   
    10     5    19 1   
    11     5    20 1   
    12     6     7 1   
    13     6     8 1   
    14     6    21 1   
    15     6    22 1   
    16     7     9 1   
    17     7    23 1   
    18     7    24 1   
    19     8    25 1   
    20     8    26 1   
    21     9    14 1   
    22     9    27 1   
    23    10    12 1   
    24    10    28 1   
    25    10    29 1   
    26    10    30 1   
    27    11    14 2   
    28    12    13 1   
    29    12    31 1   
    30    12    32 1   
    31    13    14 1   
    32    13    33 1   
    33    13    34 1   
@<TRIPOS>SUBSTRUCTURE
     1 BTK         1 TEMP              0 ****  ****    0 ROOT
