@<TRIPOS>MOLECULE
BTL
   19    18     1     0     0
SMALL
abcg2


@<TRIPOS>ATOM
      1 O1           2.7270     0.2370    -0.7720 o          1 BTL      -0.410100
      2 C            1.6850     0.3700    -0.1920 c          1 BTL       0.552900
      3 CA           0.4020    -0.1360    -0.8120 c3         1 BTL      -0.053400
      4 N           -0.8150     0.0030     0.0410 n4         1 BTL      -0.487000
      5 C3          -1.0700     1.4360     0.3690 c3         1 BTL       0.074900
      6 C2          -0.6650    -0.7910     1.2940 c3         1 BTL       0.074900
      7 C1          -1.9800    -0.5250    -0.7290 c3         1 BTL       0.074900
      8 H            1.6370     0.8660     0.7900 h4         1 BTL       0.020200
      9 HA1          0.5230    -1.1920    -1.0580 hx         1 BTL       0.124200
     10 HA2          0.2220     0.4050    -1.7430 hx         1 BTL       0.124200
     11 H31         -0.2850     1.8190     1.0150 hx         1 BTL       0.100256
     12 H32         -1.1030     2.0100    -0.5520 hx         1 BTL       0.100256
     13 H33         -2.0220     1.5100     0.8860 hx         1 BTL       0.100256
     14 H21         -1.5710    -0.6920     1.8840 hx         1 BTL       0.100256
     15 H22         -0.5040    -1.8340     1.0360 hx         1 BTL       0.100256
     16 H23          0.1770    -0.4210     1.8720 hx         1 BTL       0.100256
     17 H11         -2.1150     0.0750    -1.6240 hx         1 BTL       0.100256
     18 H12         -1.7880    -1.5600    -1.0010 hx         1 BTL       0.100256
     19 H13         -2.8670    -0.4660    -0.1050 hx         1 BTL       0.100256
@<TRIPOS>BOND
     1     1     2 2   
     2     2     3 1   
     3     2     8 1   
     4     3     4 1   
     5     3     9 1   
     6     3    10 1   
     7     4     5 1   
     8     4     6 1   
     9     4     7 1   
    10     5    11 1   
    11     5    12 1   
    12     5    13 1   
    13     6    14 1   
    14     6    15 1   
    15     6    16 1   
    16     7    17 1   
    17     7    18 1   
    18     7    19 1   
@<TRIPOS>SUBSTRUCTURE
     1 BTL         1 TEMP              0 ****  ****    0 ROOT
