@<TRIPOS>MOLECULE
BTL
   19    18     1     0     0
SMALL
No Charge or Current Charge


@<TRIPOS>ATOM
      1 O1           2.4460    -0.1700     0.4370 o          1 BTL      -0.410100
      2 C            1.7510     0.5020    -0.3150 c          1 BTL       0.552900
      3 CA           0.4070     0.0130    -0.8820 c3         1 BTL      -0.053400
      4 N           -0.8350    -0.0170     0.0500 n4         1 BTL      -0.487000
      5 C3          -1.1330     1.3930     0.5870 c3         1 BTL       0.074900
      6 C2          -0.5920    -0.9730     1.2290 c3         1 BTL       0.074900
      7 C1          -2.0480    -0.5130    -0.7510 c3         1 BTL       0.074900
      8 H            2.0500     1.5310    -0.6110 h4         1 BTL       0.020200
      9 HA1          0.5830    -0.9970    -1.2540 hx         1 BTL       0.124200
     10 HA2          0.1830     0.6570    -1.7350 hx         1 BTL       0.124200
     11 H31         -0.2870     1.7460     1.1800 hx         1 BTL       0.100256
     12 H32         -1.3040     2.0710    -0.2520 hx         1 BTL       0.100256
     13 H33         -2.0260     1.3580     1.2150 hx         1 BTL       0.100256
     14 H21         -1.4820    -1.0020     1.8610 hx         1 BTL       0.100256
     15 H22         -0.3830    -1.9740     0.8450 hx         1 BTL       0.100256
     16 H23          0.2600    -0.6210     1.8140 hx         1 BTL       0.100256
     17 H11         -2.2310     0.1650    -1.5870 hx         1 BTL       0.100256
     18 H12         -1.8450    -1.5160    -1.1300 hx         1 BTL       0.100256
     19 H13         -2.9250    -0.5380    -0.1010 hx         1 BTL       0.100256
@<TRIPOS>BOND
     1     1     2 2   
     2     2     3 1   
     3     2     8 1   
     4     3     4 1   
     5     3     9 1   
     6     3    10 1   
     7     4     5 1   
     8     4     6 1   
     9     4     7 1   
    10     5    11 1   
    11     5    12 1   
    12     5    13 1   
    13     6    14 1   
    14     6    15 1   
    15     6    16 1   
    16     7    17 1   
    17     7    18 1   
    18     7    19 1   
@<TRIPOS>SUBSTRUCTURE
     1 BTL         1 TEMP              0 ****  ****    0 ROOT
