@<TRIPOS>MOLECULE
BTM
   36    36     1     0     0
SMALL
abcg2


@<TRIPOS>ATOM
      1 N            1.3050    -0.0060     0.0170 n4         1 BTM      -0.509000
      2 C1           0.2300    -0.0060    -1.0540 c3         1 BTM       0.160900
      3 C2           1.1800     1.2040     0.9060 c3         1 BTM       0.100267
      4 C3           1.4100     2.5380     0.2290 c3         1 BTM      -0.121433
      5 C4           1.1780    -1.2160     0.9080 c3         1 BTM       0.100267
      6 C5           1.4070    -2.5510     0.2320 c3         1 BTM      -0.121433
      7 C6           2.6270    -0.0080    -0.7070 c3         1 BTM       0.100267
      8 C7           3.8450    -0.0080     0.1900 c3         1 BTM      -0.121433
      9 C8          -1.1860    -0.0070    -0.5540 ca         1 BTM      -0.163300
     10 C9          -1.8680     1.1910    -0.3460 ca         1 BTM      -0.088000
     11 C10         -3.1880     1.1910     0.0830 ca         1 BTM      -0.099000
     12 C11         -3.8490    -0.0100     0.2990 ca         1 BTM      -0.062000
     13 C12         -3.1880    -1.2100     0.0720 ca         1 BTM      -0.099000
     14 C13         -1.8690    -1.2070    -0.3570 ca         1 BTM      -0.088000
     15 H1           0.4180     0.8670    -1.6780 hx         1 BTM       0.090700
     16 H1A          0.4190    -0.8780    -1.6780 hx         1 BTM       0.090700
     17 H2           0.1850     1.1600     1.3480 hx         1 BTM       0.091367
     18 H2A          1.8920     1.0710     1.7180 hx         1 BTM       0.091367
     19 H3           0.7450     2.7190    -0.6130 hc         1 BTM       0.070589
     20 H3A          1.2080     3.3110     0.9690 hc         1 BTM       0.070589
     21 H3B          2.4360     2.6740    -0.1060 hc         1 BTM       0.070589
     22 H4           1.8900    -1.0830     1.7190 hx         1 BTM       0.091367
     23 H4A          0.1830    -1.1700     1.3480 hx         1 BTM       0.091367
     24 H5           0.7420    -2.7330    -0.6100 hc         1 BTM       0.070589
     25 H5A          2.4330    -2.6880    -0.1030 hc         1 BTM       0.070589
     26 H5B          1.2060    -3.3230     0.9740 hc         1 BTM       0.070589
     27 H6           2.6270    -0.8820    -1.3540 hx         1 BTM       0.091367
     28 H6A          2.6280     0.8660    -1.3550 hx         1 BTM       0.091367
     29 H7           4.7230    -0.0090    -0.4550 hc         1 BTM       0.070589
     30 H7A          3.9120     0.8760     0.8210 hc         1 BTM       0.070589
     31 H7B          3.9100    -0.8900     0.8240 hc         1 BTM       0.070589
     32 H9          -1.3780     2.1390    -0.5330 ha         1 BTM       0.115000
     33 H10         -3.7000     2.1310     0.2400 ha         1 BTM       0.137000
     34 H11         -4.8790    -0.0110     0.6300 ha         1 BTM       0.139000
     35 H12         -3.7010    -2.1510     0.2210 ha         1 BTM       0.137000
     36 H13         -1.3790    -2.1530    -0.5510 ha         1 BTM       0.115000
@<TRIPOS>BOND
     1     1     2 1   
     2     1     3 1   
     3     1     5 1   
     4     1     7 1   
     5     2     9 1   
     6     2    15 1   
     7     2    16 1   
     8     3     4 1   
     9     3    17 1   
    10     3    18 1   
    11     4    19 1   
    12     4    20 1   
    13     4    21 1   
    14     5     6 1   
    15     5    22 1   
    16     5    23 1   
    17     6    24 1   
    18     6    25 1   
    19     6    26 1   
    20     7     8 1   
    21     7    27 1   
    22     7    28 1   
    23     8    29 1   
    24     8    30 1   
    25     8    31 1   
    26     9    10 ar  
    27     9    14 ar  
    28    10    11 ar  
    29    10    32 1   
    30    11    12 ar  
    31    11    33 1   
    32    12    13 ar  
    33    12    34 1   
    34    13    14 ar  
    35    13    35 1   
    36    14    36 1   
@<TRIPOS>SUBSTRUCTURE
     1 BTM         1 TEMP              0 ****  ****    0 ROOT
