@<TRIPOS>MOLECULE
BTM
   36    36     1     0     0
SMALL
No Charge or Current Charge


@<TRIPOS>ATOM
      1 N            1.3070    -0.0090    -0.0050 n4         1 BTM      -0.509000
      2 C1           0.2080    -0.0060    -1.0880 c3         1 BTM       0.160900
      3 C2           1.1590     1.2400     0.8860 c3         1 BTM       0.100267
      4 C3           1.4310     2.6180     0.2460 c3         1 BTM      -0.121433
      5 C4           1.1630    -1.2610     0.8830 c3         1 BTM       0.100267
      6 C5           1.4350    -2.6360     0.2380 c3         1 BTM      -0.121433
      7 C6           2.6830    -0.0060    -0.7030 c3         1 BTM       0.100267
      8 C7           3.9380    -0.0070     0.1940 c3         1 BTM      -0.121433
      9 C8          -1.2350    -0.0060    -0.5850 ca         1 BTM      -0.163300
     10 C9          -1.9150     1.2090    -0.3690 ca         1 BTM      -0.088000
     11 C10         -3.2410     1.2100     0.0950 ca         1 BTM      -0.099000
     12 C11         -3.9030    -0.0050     0.3380 ca         1 BTM      -0.062000
     13 C12         -3.2370    -1.2200     0.1090 ca         1 BTM      -0.099000
     14 C13         -1.9110    -1.2210    -0.3550 ca         1 BTM      -0.088000
     15 H1           0.3730     0.8750    -1.7100 hx         1 BTM       0.090700
     16 H1A          0.3720    -0.8810    -1.7210 hx         1 BTM       0.090700
     17 H2           0.1410     1.2330     1.2830 hx         1 BTM       0.091367
     18 H2A          1.8400     1.1180     1.7320 hx         1 BTM       0.091367
     19 H3           0.8190     2.7720    -0.6480 hc         1 BTM       0.070589
     20 H3A          1.1970     3.4150     0.9620 hc         1 BTM       0.070589
     21 H3B          2.4840     2.7200    -0.0380 hc         1 BTM       0.070589
     22 H4           1.8450    -1.1410     1.7280 hx         1 BTM       0.091367
     23 H4A          0.1460    -1.2570     1.2820 hx         1 BTM       0.091367
     24 H5           0.8220    -2.7870    -0.6570 hc         1 BTM       0.070589
     25 H5A          2.4880    -2.7360    -0.0470 hc         1 BTM       0.070589
     26 H5B          1.2030    -3.4360     0.9500 hc         1 BTM       0.070589
     27 H6           2.7220    -0.8850    -1.3510 hx         1 BTM       0.091367
     28 H6A          2.7200     0.8750    -1.3480 hx         1 BTM       0.091367
     29 H7           4.8420    -0.0040    -0.4260 hc         1 BTM       0.070589
     30 H7A          3.9660     0.8800     0.8360 hc         1 BTM       0.070589
     31 H7B          3.9680    -0.8970     0.8320 hc         1 BTM       0.070589
     32 H9          -1.4200     2.1580    -0.5610 ha         1 BTM       0.115000
     33 H10         -3.7570     2.1530     0.2630 ha         1 BTM       0.137000
     34 H11         -4.9310    -0.0040     0.6960 ha         1 BTM       0.139000
     35 H12         -3.7510    -2.1620     0.2890 ha         1 BTM       0.137000
     36 H13         -1.4140    -2.1700    -0.5360 ha         1 BTM       0.115000
@<TRIPOS>BOND
     1     1     2 1   
     2     1     3 1   
     3     1     5 1   
     4     1     7 1   
     5     2     9 1   
     6     2    15 1   
     7     2    16 1   
     8     3     4 1   
     9     3    17 1   
    10     3    18 1   
    11     4    19 1   
    12     4    20 1   
    13     4    21 1   
    14     5     6 1   
    15     5    22 1   
    16     5    23 1   
    17     6    24 1   
    18     6    25 1   
    19     6    26 1   
    20     7     8 1   
    21     7    27 1   
    22     7    28 1   
    23     8    29 1   
    24     8    30 1   
    25     8    31 1   
    26     9    10 ar  
    27     9    14 ar  
    28    10    11 ar  
    29    10    32 1   
    30    11    12 ar  
    31    11    33 1   
    32    12    13 ar  
    33    12    34 1   
    34    13    14 ar  
    35    13    35 1   
    36    14    36 1   
@<TRIPOS>SUBSTRUCTURE
     1 BTM         1 TEMP              0 ****  ****    0 ROOT
