@<TRIPOS>MOLECULE
BTN
   31    32     1     0     0
SMALL
abcg2


@<TRIPOS>ATOM
      1 C11         32.4390    18.3120    14.0590 c          1 BTN       0.715000
      2 O11         33.2240    17.7620    13.2590 o          1 BTN      -0.743000
      3 O12         32.2830    19.5410    14.2170 o          1 BTN      -0.743000
      4 C10         31.6100    17.3970    14.9860 c3         1 BTN      -0.208400
      5 C9          31.3260    15.9980    14.4570 c3         1 BTN      -0.041400
      6 C8          30.4060    15.9890    13.2420 c3         1 BTN      -0.075400
      7 C7          30.0730    14.5780    12.7710 c3         1 BTN      -0.061400
      8 C2          29.2900    14.5370    11.4720 c5         1 BTN       0.079300
      9 S1          27.6600    15.3450    11.5970 ss         1 BTN      -0.395000
     10 C6          27.2280    14.6510     9.9810 c5         1 BTN       0.019600
     11 C5          27.7770    13.2190     9.9630 c5         1 BTN       0.097700
     12 N1          26.8620    12.2450    10.4970 ns         1 BTN      -0.524900
     13 C3          27.2530    11.7180    11.6870 c          1 BTN       0.613000
     14 O3          26.6320    10.9170    12.3650 o          1 BTN      -0.595000
     15 N2          28.4750    12.2460    11.9750 ns         1 BTN      -0.505900
     16 C4          28.9770    13.1280    10.9530 c5         1 BTN       0.095700
     17 H101        32.1600    17.3140    15.9310 hc         1 BTN       0.019200
     18 H102        30.6700    17.8950    15.2410 hc         1 BTN       0.019200
     19 H91         32.2670    15.5020    14.2040 hc         1 BTN       0.015200
     20 H92         30.8680    15.3980    15.2500 hc         1 BTN       0.015200
     21 H81         29.4830    16.5240    13.4890 hc         1 BTN       0.054700
     22 H82         30.8750    16.5440    12.4250 hc         1 BTN       0.054700
     23 H71         31.0050    14.0230    12.6190 hc         1 BTN       0.042200
     24 H72         29.5210    14.0500    13.5540 hc         1 BTN       0.042200
     25 H2          29.8580    15.0600    10.6950 h1         1 BTN       0.077700
     26 H61         26.1490    14.6790     9.8310 h1         1 BTN       0.070200
     27 H62         27.6950    15.2430     9.1920 h1         1 BTN       0.070200
     28 H5          28.0730    12.9590     8.9440 h1         1 BTN       0.061700
     29 HN1         25.9170    12.1500    10.1650 hn         1 BTN       0.332500
     30 HN2         29.0840    11.7900    12.6330 hn         1 BTN       0.338500
     31 H4          29.8680    12.7140    10.4720 h1         1 BTN       0.060700
@<TRIPOS>BOND
     1     1     2 1   
     2     1     3 1   
     3     1     4 1   
     4     4     5 1   
     5     4    17 1   
     6     4    18 1   
     7     5     6 1   
     8     5    19 1   
     9     5    20 1   
    10     6     7 1   
    11     6    21 1   
    12     6    22 1   
    13     7     8 1   
    14     7    23 1   
    15     7    24 1   
    16     8     9 1   
    17     8    16 1   
    18     8    25 1   
    19     9    10 1   
    20    10    11 1   
    21    10    26 1   
    22    10    27 1   
    23    11    12 1   
    24    11    16 1   
    25    11    28 1   
    26    12    13 1   
    27    12    29 1   
    28    13    14 2   
    29    13    15 1   
    30    15    16 1   
    31    15    30 1   
    32    16    31 1   
@<TRIPOS>SUBSTRUCTURE
     1 BTN         1 TEMP              0 ****  ****    0 ROOT
