@<TRIPOS>MOLECULE
BTN
   31    32     1     0     0
SMALL
No Charge or Current Charge


@<TRIPOS>ATOM
      1 C11         32.5540    18.2190    14.1030 c          1 BTN       0.715000
      2 O11         33.7620    18.0590    14.1840 o          1 BTN      -0.743000
      3 O12         32.0240    18.9610    13.2910 o          1 BTN      -0.743000
      4 C10         31.6520    17.4220    15.0650 c3         1 BTN      -0.208400
      5 C9          31.3220    16.0130    14.5070 c3         1 BTN      -0.041400
      6 C8          30.4430    16.0110    13.2340 c3         1 BTN      -0.075400
      7 C7          30.0900    14.5860    12.7470 c3         1 BTN      -0.061400
      8 C2          29.2390    14.5470    11.4480 c5         1 BTN       0.079300
      9 S1          27.5370    15.2200    11.7240 ss         1 BTN      -0.395000
     10 C6          27.0970    14.6250    10.0280 c5         1 BTN       0.019600
     11 C5          27.7530    13.2120     9.8590 c5         1 BTN       0.097700
     12 N1          26.8220    12.2880    10.5110 ns         1 BTN      -0.524900
     13 C3          27.3060    11.7770    11.6660 c          1 BTN       0.613000
     14 O3          26.7060    11.0200    12.4040 o          1 BTN      -0.595000
     15 N2          28.5670    12.2240    11.8610 ns         1 BTN      -0.505900
     16 C4          29.0240    13.1300    10.8010 c5         1 BTN       0.095700
     17 H101        32.1870    17.2310    16.0040 hc         1 BTN       0.019200
     18 H102        30.6900    17.9290    15.2090 hc         1 BTN       0.019200
     19 H91         32.2590    15.4790    14.3020 hc         1 BTN       0.015200
     20 H92         30.8040    15.4450    15.2900 hc         1 BTN       0.015200
     21 H81         29.5200    16.5670    13.4380 hc         1 BTN       0.054700
     22 H82         30.9650    16.5410    12.4280 hc         1 BTN       0.054700
     23 H71         31.0250    14.0390    12.5760 hc         1 BTN       0.042200
     24 H72         29.5660    14.0620    13.5550 hc         1 BTN       0.042200
     25 H2          29.7350    15.1930    10.7100 h1         1 BTN       0.077700
     26 H61         26.0080    14.6080     9.8870 h1         1 BTN       0.070200
     27 H62         27.5150    15.3270     9.2960 h1         1 BTN       0.070200
     28 H5          27.9580    12.9500     8.8130 h1         1 BTN       0.061700
     29 HN1         25.8810    12.0560    10.2170 hn         1 BTN       0.332500
     30 HN2         29.0780    11.9330    12.6840 hn         1 BTN       0.338500
     31 H4          29.9180    12.7550    10.2840 h1         1 BTN       0.060700
@<TRIPOS>BOND
     1     1     2 1   
     2     1     3 1   
     3     1     4 1   
     4     4     5 1   
     5     4    17 1   
     6     4    18 1   
     7     5     6 1   
     8     5    19 1   
     9     5    20 1   
    10     6     7 1   
    11     6    21 1   
    12     6    22 1   
    13     7     8 1   
    14     7    23 1   
    15     7    24 1   
    16     8     9 1   
    17     8    16 1   
    18     8    25 1   
    19     9    10 1   
    20    10    11 1   
    21    10    26 1   
    22    10    27 1   
    23    11    12 1   
    24    11    16 1   
    25    11    28 1   
    26    12    13 1   
    27    12    29 1   
    28    13    14 2   
    29    13    15 1   
    30    15    16 1   
    31    15    30 1   
    32    16    31 1   
@<TRIPOS>SUBSTRUCTURE
     1 BTN         1 TEMP              0 ****  ****    0 ROOT
