@<TRIPOS>MOLECULE
BTO
   30    31     1     0     0
SMALL
No Charge or Current Charge


@<TRIPOS>ATOM
      1 C1          -5.5350    -0.6650     5.6250 ca         1 BTO      -0.140000
      2 C2          -5.4860    -1.9800     6.1090 ca         1 BTO      -0.044000
      3 C3          -4.4950    -2.8710     5.6390 ca         1 BTO      -0.191200
      4 C4          -3.5590    -2.4190     4.6770 ca         1 BTO       0.003000
      5 C5          -3.6030    -1.0930     4.1830 ca         1 BTO      -0.126500
      6 C6          -4.6050    -0.2220     4.6710 ca         1 BTO      -0.041000
      7 N           -4.4350    -4.2780     6.1510 no         1 BTO       0.695200
      8 O           -5.2740    -4.6320     6.9900 o          1 BTO      -0.401000
      9 O1          -3.5490    -5.0240     5.7130 o          1 BTO      -0.401000
     10 C7          -2.6280    -0.6240     3.1830 cc         1 BTO       0.599500
     11 N1          -1.6600    -1.4640     2.7150 nc         1 BTO      -0.707000
     12 C8          -1.0330    -0.6880     1.8600 cd         1 BTO       0.529300
     13 C9           0.1940    -1.0840     1.0790 c3         1 BTO      -0.115700
     14 C10          0.2710    -0.4880    -0.3500 c3         1 BTO      -0.038400
     15 C11         -0.8700    -0.9120    -1.3130 c3         1 BTO      -0.218400
     16 C12         -0.8100    -2.4170    -1.6340 c          1 BTO       0.716000
     17 O13         -0.0840    -2.7810    -2.5470 o          1 BTO      -0.737000
     18 O14         -1.4630    -3.1820    -0.9420 o          1 BTO      -0.737000
     19 O15         -1.5330     0.5780     1.7980 os         1 BTO      -0.092700
     20 N2          -2.6240     0.6070     2.6930 nd         1 BTO      -0.407300
     21 H111        -1.8150    -0.6580    -0.8180 hc         1 BTO       0.023200
     22 H112        -0.6920    -0.3330    -2.2280 hc         1 BTO       0.023200
     23 H101         0.2800     0.6070    -0.2760 hc         1 BTO       0.029700
     24 H102         1.2340    -0.7690    -0.7960 hc         1 BTO       0.029700
     25 H91          0.2570    -2.1760     1.0230 hc         1 BTO       0.080200
     26 H92          1.0790    -0.7610     1.6390 hc         1 BTO       0.080200
     27 H6          -4.6690     0.8050     4.3150 ha         1 BTO       0.138000
     28 H1          -6.3000     0.0170     5.9900 ha         1 BTO       0.121000
     29 H2          -6.2200    -2.2980     6.8490 ha         1 BTO       0.143000
     30 H4          -2.7930    -3.1020     4.3100 ha         1 BTO       0.188000
@<TRIPOS>BOND
     1     1     2 ar  
     2     1     6 ar  
     3     1    28 1   
     4     2     3 ar  
     5     2    29 1   
     6     3     4 ar  
     7     3     7 1   
     8     4     5 ar  
     9     4    30 1   
    10     5     6 ar  
    11     5    10 1   
    12     6    27 1   
    13     7     8 1   
    14     7     9 1   
    15    10    11 1   
    16    10    20 2   
    17    11    12 2   
    18    12    13 1   
    19    12    19 1   
    20    13    14 1   
    21    13    25 1   
    22    13    26 1   
    23    14    15 1   
    24    14    23 1   
    25    14    24 1   
    26    15    16 1   
    27    15    21 1   
    28    15    22 1   
    29    16    17 1   
    30    16    18 1   
    31    19    20 1   
@<TRIPOS>SUBSTRUCTURE
     1 BTO         1 TEMP              0 ****  ****    0 ROOT
