@<TRIPOS>MOLECULE
BTO
   30    31     1     0     0
SMALL
abcg2


@<TRIPOS>ATOM
      1 C1          -5.3750    -0.7000     5.5690 ca         1 BTO      -0.140000
      2 C2          -5.4040    -2.0480     5.8900 ca         1 BTO      -0.044000
      3 C3          -4.4490    -2.8810     5.3300 ca         1 BTO      -0.191200
      4 C4          -3.4740    -2.4080     4.4660 ca         1 BTO       0.003000
      5 C5          -3.4570    -1.0550     4.1540 ca         1 BTO      -0.126500
      6 C6          -4.4110    -0.2030     4.7090 ca         1 BTO      -0.041000
      7 N           -4.4670    -4.3010     5.6570 no         1 BTO       0.695200
      8 O           -5.3120    -4.6930     6.4260 o          1 BTO      -0.401000
      9 O1          -3.6370    -5.0130     5.1440 o          1 BTO      -0.401000
     10 C7          -2.4340    -0.5480     3.2400 cc         1 BTO       0.599500
     11 N1          -1.4950    -1.3450     2.6550 nc         1 BTO      -0.707000
     12 C8          -0.8120    -0.5120     1.9420 cd         1 BTO       0.529300
     13 C9           0.3410    -0.7780     1.0520 c3         1 BTO      -0.115700
     14 C10          0.0540    -0.4410    -0.4160 c3         1 BTO      -0.038400
     15 C11         -1.1620    -1.1560    -0.9850 c3         1 BTO      -0.218400
     16 C12         -1.0800    -2.6930    -1.0160 c          1 BTO       0.716000
     17 O13          0.0550    -3.2090    -0.9720 o          1 BTO      -0.737000
     18 O14         -2.1650    -3.3010    -1.1220 o          1 BTO      -0.737000
     19 O15         -1.2720     0.7300     2.0550 os         1 BTO      -0.092700
     20 N2          -2.3360     0.7030     2.9070 nd         1 BTO      -0.407300
     21 H111        -2.0730    -0.8500    -0.4610 hc         1 BTO       0.023200
     22 H112        -1.3080    -0.8180    -2.0180 hc         1 BTO       0.023200
     23 H101        -0.0670     0.6390    -0.5240 hc         1 BTO       0.029700
     24 H102         0.9430    -0.7100    -0.9880 hc         1 BTO       0.029700
     25 H91          0.5950    -1.8310     1.1500 hc         1 BTO       0.080200
     26 H92          1.1970    -0.1980     1.4070 hc         1 BTO       0.080200
     27 H6          -4.4040     0.8510     4.4660 ha         1 BTO       0.138000
     28 H1          -6.1130    -0.0350     5.9950 ha         1 BTO       0.121000
     29 H2          -6.1600    -2.4300     6.5600 ha         1 BTO       0.143000
     30 H4          -2.7370    -3.0710     4.0370 ha         1 BTO       0.188000
@<TRIPOS>BOND
     1     1     2 ar  
     2     1     6 ar  
     3     1    28 1   
     4     2     3 ar  
     5     2    29 1   
     6     3     4 ar  
     7     3     7 1   
     8     4     5 ar  
     9     4    30 1   
    10     5     6 ar  
    11     5    10 1   
    12     6    27 1   
    13     7     8 1   
    14     7     9 1   
    15    10    11 1   
    16    10    20 2   
    17    11    12 2   
    18    12    13 1   
    19    12    19 1   
    20    13    14 1   
    21    13    25 1   
    22    13    26 1   
    23    14    15 1   
    24    14    23 1   
    25    14    24 1   
    26    15    16 1   
    27    15    21 1   
    28    15    22 1   
    29    16    17 1   
    30    16    18 1   
    31    19    20 1   
@<TRIPOS>SUBSTRUCTURE
     1 BTO         1 TEMP              0 ****  ****    0 ROOT
