@<TRIPOS>MOLECULE
BTP
   24    24     1     0     0
SMALL
abcg2


@<TRIPOS>ATOM
      1 C1           1.7530    -0.2880     0.7590 c          1 BTP       0.719000
      2 O1           2.3850     0.7840     0.8600 o          1 BTP      -0.725000
      3 O2           2.2020    -1.3830     0.3760 o          1 BTP      -0.725000
      4 C2           0.2650    -0.2360     1.1820 c3         1 BTP      -0.189700
      5 C3          -0.5060     0.7970     0.3500 c3         1 BTP      -0.018100
      6 C7          -0.5530     0.4400    -1.1090 ca         1 BTP      -0.040300
      7 C8          -1.5740    -0.3700    -1.6050 ca         1 BTP      -0.097500
      8 C9          -1.6180    -0.7270    -2.9460 ca         1 BTP      -0.122000
      9 C4          -0.6370    -0.2760    -3.8190 ca         1 BTP      -0.134000
     10 C5           0.3870     0.5300    -3.3380 ca         1 BTP      -0.122000
     11 C6           0.4270     0.8820    -1.9950 ca         1 BTP      -0.097500
     12 C            0.2070     0.0860     2.6740 c3         1 BTP       0.143600
     13 S           -1.5010    -0.0950     3.3060 sh         1 BTP      -0.550800
     14 H2          -0.1800    -1.2230     1.0190 hc         1 BTP       0.054700
     15 H31         -1.5290     0.8860     0.7250 hc         1 BTP       0.041200
     16 H32         -0.0380     1.7740     0.4830 hc         1 BTP       0.041200
     17 H1          -2.3470    -0.7230    -0.9310 ha         1 BTP       0.120000
     18 H3          -2.4240    -1.3520    -3.3100 ha         1 BTP       0.093500
     19 H4          -0.6710    -0.5480    -4.8660 ha         1 BTP       0.089000
     20 H5           1.1560     0.8890    -4.0110 ha         1 BTP       0.093500
     21 H6           1.2350     1.5020    -1.6260 ha         1 BTP       0.120000
     22 H'1          0.8470    -0.5990     3.2300 h1         1 BTP       0.059200
     23 H'2          0.5540     1.1030     2.8560 h1         1 BTP       0.059200
     24 HS          -1.2450     0.1960     4.5860 hs         1 BTP       0.190800
@<TRIPOS>BOND
     1     1     2 1   
     2     1     3 1   
     3     1     4 1   
     4     4     5 1   
     5     4    12 1   
     6     4    14 1   
     7     5     6 1   
     8     5    15 1   
     9     5    16 1   
    10     6     7 ar  
    11     6    11 ar  
    12     7     8 ar  
    13     7    17 1   
    14     8     9 ar  
    15     8    18 1   
    16     9    10 ar  
    17     9    19 1   
    18    10    11 ar  
    19    10    20 1   
    20    11    21 1   
    21    12    13 1   
    22    12    22 1   
    23    12    23 1   
    24    13    24 1   
@<TRIPOS>SUBSTRUCTURE
     1 BTP         1 TEMP              0 ****  ****    0 ROOT
