@<TRIPOS>MOLECULE
BTP
   24    24     1     0     0
SMALL
No Charge or Current Charge


@<TRIPOS>ATOM
      1 C1           1.6910    -0.4570     0.7960 c          1 BTP       0.719000
      2 O1           2.4710     0.4770     0.9100 o          1 BTP      -0.725000
      3 O2           2.0230    -1.5670     0.4070 o          1 BTP      -0.725000
      4 C2           0.2230    -0.2430     1.2100 c3         1 BTP      -0.189700
      5 C3          -0.4640     0.8390     0.3320 c3         1 BTP      -0.018100
      6 C7          -0.5180     0.4560    -1.1420 ca         1 BTP      -0.040300
      7 C8          -1.4630    -0.4860    -1.5950 ca         1 BTP      -0.097500
      8 C9          -1.5180    -0.8390    -2.9540 ca         1 BTP      -0.122000
      9 C4          -0.6290    -0.2530    -3.8700 ca         1 BTP      -0.134000
     10 C5           0.3160     0.6870    -3.4260 ca         1 BTP      -0.122000
     11 C6           0.3710     1.0410    -2.0660 ca         1 BTP      -0.097500
     12 C            0.1640     0.0810     2.7170 c3         1 BTP       0.143600
     13 S           -1.5510     0.0550     3.4290 sh         1 BTP      -0.550800
     14 H2          -0.3070    -1.1900     1.0560 hc         1 BTP       0.054700
     15 H31         -1.4870     1.0040     0.6920 hc         1 BTP       0.041200
     16 H32          0.0540     1.7980     0.4610 hc         1 BTP       0.041200
     17 H1          -2.1550    -0.9430    -0.8910 ha         1 BTP       0.120000
     18 H3          -2.2500    -1.5670    -3.2970 ha         1 BTP       0.093500
     19 H4          -0.6710    -0.5270    -4.9220 ha         1 BTP       0.089000
     20 H5           1.0050     1.1410    -4.1330 ha         1 BTP       0.093500
     21 H6           1.1070     1.7680    -1.7300 ha         1 BTP       0.120000
     22 H'1          0.7640    -0.6590     3.2660 h1         1 BTP       0.059200
     23 H'2          0.6060     1.0690     2.9010 h1         1 BTP       0.059200
     24 HS          -1.1850     0.3640     4.6980 hs         1 BTP       0.190800
@<TRIPOS>BOND
     1     1     2 1   
     2     1     3 1   
     3     1     4 1   
     4     4     5 1   
     5     4    12 1   
     6     4    14 1   
     7     5     6 1   
     8     5    15 1   
     9     5    16 1   
    10     6     7 ar  
    11     6    11 ar  
    12     7     8 ar  
    13     7    17 1   
    14     8     9 ar  
    15     8    18 1   
    16     9    10 ar  
    17     9    19 1   
    18    10    11 ar  
    19    10    20 1   
    20    11    21 1   
    21    12    13 1   
    22    12    22 1   
    23    12    23 1   
    24    13    24 1   
@<TRIPOS>SUBSTRUCTURE
     1 BTP         1 TEMP              0 ****  ****    0 ROOT
