@<TRIPOS>MOLECULE
BTQ
   31    32     1     0     0
SMALL
No Charge or Current Charge


@<TRIPOS>ATOM
      1 C11          5.4710     0.4890    -0.2230 c          1 BTQ       0.717000
      2 O11          5.8100     1.6190    -0.5410 o          1 BTQ      -0.742000
      3 O12          6.1010    -0.2130     0.5530 o          1 BTQ      -0.742000
      4 C10          4.1450    -0.0560    -0.7830 c3         1 BTQ      -0.204400
      5 C9           2.9720     0.3180     0.1560 c3         1 BTQ      -0.053400
      6 C8           1.6040    -0.1970    -0.3450 c3         1 BTQ      -0.082400
      7 C7           0.4340     0.1810     0.5940 c3         1 BTQ      -0.063400
      8 C2          -0.9600    -0.2790     0.1010 c5         1 BTQ       0.078300
      9 S1          -1.1090    -2.1200     0.1030 ss         1 BTQ      -0.407000
     10 C6          -2.9070    -1.8950    -0.2450 c5         1 BTQ       0.024600
     11 C5          -3.3700    -0.7790     0.7440 c5         1 BTQ       0.102700
     12 N1          -4.2830     0.0750    -0.0160 ns         1 BTQ      -0.533900
     13 C3          -3.8200     1.3380    -0.1630 c          1 BTQ       0.603000
     14 O3          -4.4020     2.2360    -0.7380 o          1 BTQ      -0.593000
     15 N2          -2.6120     1.4480     0.4390 ns         1 BTQ      -0.506900
     16 C4          -2.1450     0.1840     1.0120 c5         1 BTQ       0.088700
     17 H101         3.9160     0.4100    -1.7500 hc         1 BTQ       0.016200
     18 H102         4.1640    -1.1530    -0.8170 hc         1 BTQ       0.016200
     19 H91          3.1660    -0.0900     1.1550 hc         1 BTQ       0.038200
     20 H92          2.9300     1.4100     0.2610 hc         1 BTQ       0.038200
     21 H81          1.4080     0.2130    -1.3440 hc         1 BTQ       0.035200
     22 H82          1.6510    -1.2870    -0.4510 hc         1 BTQ       0.035200
     23 H71          0.6270    -0.2360     1.5910 hc         1 BTQ       0.045200
     24 H72          0.4270     1.2710     0.7130 hc         1 BTQ       0.045200
     25 H2          -1.1010     0.0720    -0.9320 h1         1 BTQ       0.085700
     26 H61         -3.0240    -1.5910    -1.2950 h1         1 BTQ       0.073700
     27 H62         -3.4580    -2.8330    -0.0980 h1         1 BTQ       0.073700
     28 H5          -3.8020    -1.1740     1.6730 h1         1 BTQ       0.068700
     29 HN1         -5.1930    -0.1730    -0.3870 hn         1 BTQ       0.338500
     30 HN2         -2.1270     2.3370     0.4330 hn         1 BTQ       0.336500
     31 H4          -1.8820     0.2420     2.0770 h1         1 BTQ       0.066700
@<TRIPOS>BOND
     1     1     2 1   
     2     1     3 1   
     3     1     4 1   
     4     4     5 1   
     5     4    17 1   
     6     4    18 1   
     7     5     6 1   
     8     5    19 1   
     9     5    20 1   
    10     6     7 1   
    11     6    21 1   
    12     6    22 1   
    13     7     8 1   
    14     7    23 1   
    15     7    24 1   
    16     8     9 1   
    17     8    16 1   
    18     8    25 1   
    19     9    10 1   
    20    10    11 1   
    21    10    26 1   
    22    10    27 1   
    23    11    12 1   
    24    11    16 1   
    25    11    28 1   
    26    12    13 1   
    27    12    29 1   
    28    13    14 2   
    29    13    15 1   
    30    15    16 1   
    31    15    30 1   
    32    16    31 1   
@<TRIPOS>SUBSTRUCTURE
     1 BTQ         1 TEMP              0 ****  ****    0 ROOT
