@<TRIPOS>MOLECULE
BTQ
   31    32     1     0     0
SMALL
bcc


@<TRIPOS>ATOM
      1 C11          5.5380     0.3040    -0.0770 c          1 BTQ       0.927600
      2 O11          5.5720     1.1550     0.8340 o          1 BTQ      -0.847300
      3 O12          6.5260    -0.1850    -0.6660 o          1 BTQ      -0.847300
      4 C10          4.1610    -0.2060    -0.5360 c3         1 BTQ      -0.204400
      5 C9           2.9550     0.3740     0.1850 c3         1 BTQ      -0.053400
      6 C8           1.6410    -0.2100    -0.3190 c3         1 BTQ      -0.082400
      7 C7           0.4290     0.3300     0.4290 c3         1 BTQ      -0.063400
      8 C2          -0.9030    -0.1740    -0.0980 c5         1 BTQ       0.030400
      9 S1          -1.0320    -1.9960    -0.0230 ss         1 BTQ      -0.311200
     10 C6          -2.8250    -1.8710    -0.2410 c5         1 BTQ      -0.023300
     11 C5          -3.2430    -0.7290     0.6890 c5         1 BTQ       0.102700
     12 N1          -4.3870     0.0220     0.2530 ns         1 BTQ      -0.600900
     13 C3          -4.1010     1.3030    -0.0930 c          1 BTQ       0.812500
     14 O3          -4.8940     2.1410    -0.4950 o          1 BTQ      -0.668500
     15 N2          -2.7580     1.4830     0.0830 ns         1 BTQ      -0.573900
     16 C4          -2.1170     0.3430     0.6930 c5         1 BTQ       0.088700
     17 H101         4.0690    -0.0200    -1.6120 hc         1 BTQ       0.016200
     18 H102         4.1530    -1.2980    -0.4390 hc         1 BTQ       0.016200
     19 H91          3.0420     0.1900     1.2600 hc         1 BTQ       0.038200
     20 H92          2.9380     1.4620     0.0680 hc         1 BTQ       0.038200
     21 H81          1.5310    -0.0030    -1.3890 hc         1 BTQ       0.035200
     22 H82          1.6770    -1.3010    -0.2240 hc         1 BTQ       0.035200
     23 H71          0.5100     0.0860     1.4940 hc         1 BTQ       0.045200
     24 H72          0.4230     1.4230     0.3630 hc         1 BTQ       0.045200
     25 H2          -1.0220     0.1210    -1.1460 h1         1 BTQ       0.085700
     26 H61         -3.0590    -1.6330    -1.2810 h1         1 BTQ       0.073700
     27 H62         -3.2990    -2.8160     0.0180 h1         1 BTQ       0.073700
     28 H5          -3.3910    -1.1340     1.6920 h1         1 BTQ       0.068700
     29 HN1         -5.3040    -0.3740     0.1330 hn         1 BTQ       0.338500
     30 HN2         -2.3960     2.4150     0.2060 hn         1 BTQ       0.336500
     31 H4          -1.8050     0.5650     1.7180 h1         1 BTQ       0.066700
@<TRIPOS>BOND
     1     1     2 1   
     2     1     3 1   
     3     1     4 1   
     4     4     5 1   
     5     4    17 1   
     6     4    18 1   
     7     5     6 1   
     8     5    19 1   
     9     5    20 1   
    10     6     7 1   
    11     6    21 1   
    12     6    22 1   
    13     7     8 1   
    14     7    23 1   
    15     7    24 1   
    16     8     9 1   
    17     8    16 1   
    18     8    25 1   
    19     9    10 1   
    20    10    11 1   
    21    10    26 1   
    22    10    27 1   
    23    11    12 1   
    24    11    16 1   
    25    11    28 1   
    26    12    13 1   
    27    12    29 1   
    28    13    14 2   
    29    13    15 1   
    30    15    16 1   
    31    15    30 1   
    32    16    31 1   
@<TRIPOS>SUBSTRUCTURE
     1 BTQ         1 TEMP              0 ****  ****    0 ROOT
