@<TRIPOS>MOLECULE
BTR
   26    27     1     0     0
SMALL
bcc


@<TRIPOS>ATOM
      1 N            0.7160     4.9410     3.2870 n8         1 BTR      -0.893800
      2 CA           0.4790     5.0560     1.8570 c3         1 BTR       0.016500
      3 C            1.2840     4.0850     0.9560 c          1 BTR       0.903600
      4 O            0.9120     4.0240    -0.2370 o          1 BTR      -0.839300
      5 OXT          2.2280     3.4610     1.4760 o          1 BTR      -0.839300
      6 CB           0.7130     6.5110     1.4160 c3         1 BTR       0.016800
      7 CG           2.1000     7.0120     1.6650 cc         1 BTR      -0.078400
      8 CD1          2.5480     7.6490     2.7890 cd         1 BTR      -0.134100
      9 NE1          3.8750     7.9620     2.6650 na         1 BTR      -0.186400
     10 CE2          4.3220     7.5420     1.4510 ca         1 BTR      -0.055200
     11 CD2          3.2330     6.9280     0.7910 ca         1 BTR      -0.069800
     12 CE3          3.4320     6.4110    -0.4930 ca         1 BTR      -0.031000
     13 CZ3          4.6740     6.5170    -1.0870 ca         1 BTR      -0.162000
     14 CH2          5.7270     7.1400    -0.3990 ca         1 BTR       0.010100
     15 BR2          7.4110     7.2760    -1.2570 br         1 BTR      -0.159100
     16 CZ2          5.5850     7.6570     0.8710 ca         1 BTR      -0.146000
     17 H            1.7180     4.9560     3.4370 hn         1 BTR       0.328800
     18 H2           0.4310     4.0170     3.5900 hn         1 BTR       0.328800
     19 HA          -0.5840     4.8530     1.6840 h1         1 BTR       0.037700
     20 HB2          0.4690     6.6040     0.3560 hc         1 BTR       0.035200
     21 HB3          0.0040     7.1460     1.9530 hc         1 BTR       0.035200
     22 HD1          2.0070     7.9180     3.6830 h4         1 BTR       0.157000
     23 HE1          4.4240     8.4430     3.3590 hn         1 BTR       0.282700
     24 HE3          2.6260     5.9100    -1.0130 ha         1 BTR       0.177000
     25 HZ3          4.8320     6.1170    -2.0790 ha         1 BTR       0.137000
     26 HZ2          6.4030     8.1340     1.3960 ha         1 BTR       0.128000
@<TRIPOS>BOND
     1     1     2 1   
     2     1    17 1   
     3     1    18 1   
     4     2     3 1   
     5     2     6 1   
     6     2    19 1   
     7     3     4 1   
     8     3     5 1   
     9     6     7 1   
    10     6    20 1   
    11     6    21 1   
    12     7     8 2   
    13     7    11 1   
    14     8     9 1   
    15     8    22 1   
    16     9    10 1   
    17     9    23 1   
    18    10    11 ar  
    19    10    16 ar  
    20    11    12 ar  
    21    12    13 ar  
    22    12    24 1   
    23    13    14 ar  
    24    13    25 1   
    25    14    15 1   
    26    14    16 ar  
    27    16    26 1   
@<TRIPOS>SUBSTRUCTURE
     1 BTR         1 TEMP              0 ****  ****    0 ROOT
