@<TRIPOS>MOLECULE
BTR
   26    27     1     0     0
SMALL
No Charge or Current Charge


@<TRIPOS>ATOM
      1 N            0.4980     4.9200     3.3350 n8         1 BTR      -0.893800
      2 CA           0.4820     5.0490     1.8250 c3         1 BTR       0.016500
      3 C            1.3940     4.0510     0.9880 c          1 BTR       0.903600
      4 O            1.0720     3.8000    -0.1680 o          1 BTR      -0.839300
      5 OXT          2.2980     3.4470     1.5590 o          1 BTR      -0.839300
      6 CB           0.7350     6.5210     1.4010 c3         1 BTR       0.016800
      7 CG           2.1320     7.0240     1.6780 cc         1 BTR      -0.078400
      8 CD1          2.5840     7.6490     2.8370 cd         1 BTR      -0.134100
      9 NE1          3.9550     7.9680     2.7070 na         1 BTR      -0.186400
     10 CE2          4.3260     7.5400     1.4470 ca         1 BTR      -0.055200
     11 CD2          3.2670     6.9700     0.7950 ca         1 BTR      -0.069800
     12 CE3          3.3840     6.4710    -0.5120 ca         1 BTR      -0.031000
     13 CZ3          4.6430     6.5640    -1.1440 ca         1 BTR      -0.162000
     14 CH2          5.7380     7.1480    -0.4670 ca         1 BTR       0.010100
     15 Br2          7.4350     7.2680    -1.3360 br         1 BTR      -0.159100
     16 CZ2          5.5860     7.6460     0.8430 ca         1 BTR      -0.146000
     17 H            1.4610     5.0610     3.6560 hn         1 BTR       0.328800
     18 H2           0.3000     3.9450     3.5860 hn         1 BTR       0.328800
     19 HA          -0.5480     4.8140     1.5230 h1         1 BTR       0.037700
     20 HB2          0.5160     6.6230     0.3320 hc         1 BTR       0.035200
     21 HB3          0.0100     7.1680     1.9120 hc         1 BTR       0.035200
     22 HD1          2.0310     7.8830     3.7410 h4         1 BTR       0.157000
     23 HE1          4.5440     8.4250     3.3950 hn         1 BTR       0.282700
     24 HE3          2.5340     6.0290    -1.0270 ha         1 BTR       0.177000
     25 HZ3          4.7690     6.1860    -2.1560 ha         1 BTR       0.137000
     26 HZ2          6.4230     8.1010     1.3680 ha         1 BTR       0.128000
@<TRIPOS>BOND
     1     1     2 1   
     2     1    17 1   
     3     1    18 1   
     4     2     3 1   
     5     2     6 1   
     6     2    19 1   
     7     3     4 1   
     8     3     5 1   
     9     6     7 1   
    10     6    20 1   
    11     6    21 1   
    12     7     8 2   
    13     7    11 1   
    14     8     9 1   
    15     8    22 1   
    16     9    10 1   
    17     9    23 1   
    18    10    11 ar  
    19    10    16 ar  
    20    11    12 ar  
    21    12    13 ar  
    22    12    24 1   
    23    13    14 ar  
    24    13    25 1   
    25    14    15 1   
    26    14    16 ar  
    27    16    26 1   
@<TRIPOS>SUBSTRUCTURE
     1 BTR         1 TEMP              0 ****  ****    0 ROOT
