@<TRIPOS>MOLECULE
BTS
   27    28     1     0     0
SMALL
No Charge or Current Charge


@<TRIPOS>ATOM
      1 C5           2.2860     0.0060    -5.3190 ca         1 BTS      -0.115000
      2 C4           2.1460     0.0040    -3.9160 ca         1 BTS      -0.064000
      3 C6           1.1440     0.0080    -6.1460 ca         1 BTS      -0.117000
      4 N3           0.6330     0.0030    -1.9700 nc         1 BTS      -0.556100
      5 C2          -0.6990     0.0040    -1.8310 cd         1 BTS       0.428100
      6 S1          -1.7520     0.0070    -3.2640 ss         1 BTS       0.020800
      7 C7A         -0.2500     0.0070    -4.1720 ca         1 BTS      -0.189000
      8 C3A          0.8630     0.0040    -3.3440 ca         1 BTS       0.114400
      9 C7          -0.1410     0.0090    -5.5710 ca         1 BTS      -0.073000
     10 S2          -1.4270     0.0030    -0.2190 ss         1 BTS      -0.239200
     11 C1           0.0270    -0.0010     0.9230 c3         1 BTS       0.072600
     12 C8          -0.4390    -0.0020     2.3920 c3         1 BTS      -0.031400
     13 C9           0.7460    -0.0050     3.3920 c3         1 BTS      -0.354400
     14 S3           0.2360    -0.0070     5.1300 s6         1 BTS       1.320600
     15 O2          -0.5470    -1.2440     5.2660 o          1 BTS      -0.694533
     16 O3          -0.5440     1.2310     5.2700 o          1 BTS      -0.694533
     17 O4           1.5120    -0.0100     5.8590 o          1 BTS      -0.694533
     18 H5           3.2780     0.0050    -5.7640 ha         1 BTS       0.110000
     19 H4           3.0260     0.0020    -3.2770 ha         1 BTS       0.131000
     20 H6           1.2550     0.0090    -7.2280 ha         1 BTS       0.106000
     21 H7          -1.0290     0.0100    -6.2000 ha         1 BTS       0.117000
     22 H11          0.6380     0.8900     0.7290 h1         1 BTS       0.071700
     23 H12          0.6360    -0.8920     0.7270 h1         1 BTS       0.071700
     24 H81         -1.0690    -0.8840     2.5620 hc         1 BTS       0.061700
     25 H82         -1.0680     0.8800     2.5650 hc         1 BTS       0.061700
     26 H91          1.3650     0.8880     3.2540 h1         1 BTS       0.067700
     27 H92          1.3630    -0.8990     3.2510 h1         1 BTS       0.067700
@<TRIPOS>BOND
     1     1     2 ar  
     2     1     3 ar  
     3     1    18 1   
     4     2     8 ar  
     5     2    19 1   
     6     3     9 ar  
     7     3    20 1   
     8     4     5 2   
     9     4     8 1   
    10     5     6 1   
    11     5    10 1   
    12     6     7 1   
    13     7     8 ar  
    14     7     9 ar  
    15     9    21 1   
    16    10    11 1   
    17    11    12 1   
    18    11    22 1   
    19    11    23 1   
    20    12    13 1   
    21    12    24 1   
    22    12    25 1   
    23    13    14 1   
    24    13    26 1   
    25    13    27 1   
    26    14    15 1   
    27    14    16 1   
    28    14    17 1   
@<TRIPOS>SUBSTRUCTURE
     1 BTS         1 TEMP              0 ****  ****    0 ROOT
