@<TRIPOS>MOLECULE
BTS
   27    28     1     0     0
SMALL
bcc


@<TRIPOS>ATOM
      1 C5           2.2540     0.0070    -5.2870 ca         1 BTS      -0.133000
      2 C4           2.1550     0.0070    -3.9070 ca         1 BTS      -0.082000
      3 C6           1.1100     0.0070    -6.0910 ca         1 BTS      -0.135000
      4 N3           0.6350     0.0040    -1.9700 nc         1 BTS      -0.556100
      5 C2          -0.6290     0.0010    -1.7410 cd         1 BTS       0.428100
      6 S1          -1.6720     0.0010    -3.1500 ss         1 BTS      -0.106100
      7 C7A         -0.2500     0.0040    -4.1440 ca         1 BTS      -0.062100
      8 C3A          0.8890     0.0050    -3.3230 ca         1 BTS       0.114400
      9 C7          -0.1560     0.0050    -5.5290 ca         1 BTS      -0.091000
     10 S2          -1.3830    -0.0020    -0.1800 ss         1 BTS      -0.191300
     11 C1           0.0660     0.0040     0.9180 c3         1 BTS       0.024700
     12 C8          -0.4360     0.0020     2.3560 c3         1 BTS      -0.031400
     13 C9           0.7340    -0.0070     3.3240 c3         1 BTS      -0.243600
     14 S3           0.2070    -0.0100     5.0490 s6         1 BTS       1.209800
     15 O2          -0.5950    -1.2380     5.2220 o          1 BTS      -0.694533
     16 O3          -0.5820     1.2250     5.2300 o          1 BTS      -0.694533
     17 O4           1.4590    -0.0190     5.8320 o          1 BTS      -0.694533
     18 H5           3.2310     0.0090    -5.7510 ha         1 BTS       0.128000
     19 H4           3.0370     0.0070    -3.2810 ha         1 BTS       0.149000
     20 H6           1.2120     0.0070    -7.1680 ha         1 BTS       0.124000
     21 H7          -1.0390     0.0040    -6.1530 ha         1 BTS       0.135000
     22 H11          0.6620     0.8920     0.7080 h1         1 BTS       0.071700
     23 H12          0.6700    -0.8780     0.7080 h1         1 BTS       0.071700
     24 H81         -1.0630    -0.8740     2.5290 hc         1 BTS       0.061700
     25 H82         -1.0530     0.8850     2.5340 hc         1 BTS       0.061700
     26 H91          1.3680     0.8710     3.1840 h1         1 BTS       0.067700
     27 H92          1.3570    -0.8930     3.1790 h1         1 BTS       0.067700
@<TRIPOS>BOND
     1     1     2 ar  
     2     1     3 ar  
     3     1    18 1   
     4     2     8 ar  
     5     2    19 1   
     6     3     9 ar  
     7     3    20 1   
     8     4     5 2   
     9     4     8 1   
    10     5     6 1   
    11     5    10 1   
    12     6     7 1   
    13     7     8 ar  
    14     7     9 ar  
    15     9    21 1   
    16    10    11 1   
    17    11    12 1   
    18    11    22 1   
    19    11    23 1   
    20    12    13 1   
    21    12    24 1   
    22    12    25 1   
    23    13    14 1   
    24    13    26 1   
    25    13    27 1   
    26    14    15 1   
    27    14    16 1   
    28    14    17 1   
@<TRIPOS>SUBSTRUCTURE
     1 BTS         1 TEMP              0 ****  ****    0 ROOT
