@<TRIPOS>MOLECULE
BTT
   16    16     1     0     0
SMALL
No Charge or Current Charge


@<TRIPOS>ATOM
      1 C1           0.9180     0.0790     1.2020 ca         1 BTT       0.084600
      2 C2          -0.4900    -0.0370     1.2080 ca         1 BTT       0.084600
      3 C3          -1.1860    -0.2140    -0.0020 ca         1 BTT      -0.167500
      4 C4          -0.4740    -0.2740    -1.2130 ca         1 BTT       0.084600
      5 C5           0.9330    -0.1570    -1.2120 ca         1 BTT       0.084600
      6 C6           1.6290     0.0190    -0.0060 ca         1 BTT      -0.167500
      7 O1           1.5880     0.2500     2.3790 oh         1 BTT      -0.543100
      8 O2          -1.1730     0.0230     2.3940 oh         1 BTT      -0.543100
      9 O4          -1.1420    -0.4460    -2.3970 oh         1 BTT      -0.543100
     10 O5           1.6180    -0.2170    -2.3910 oh         1 BTT      -0.543100
     11 H3          -2.2700    -0.3040     0.0000 ha         1 BTT       0.131000
     12 H6           2.7120     0.1090    -0.0080 ha         1 BTT       0.131000
     13 HO1          0.9030     0.2630     3.0860 ho         1 BTT       0.476500
     14 HO2         -2.1340    -0.0750     2.2140 ho         1 BTT       0.476500
     15 HO4         -2.1050    -0.5080    -2.2140 ho         1 BTT       0.476500
     16 HO5          0.9430    -0.3420    -3.0960 ho         1 BTT       0.476500
@<TRIPOS>BOND
     1     1     2 ar  
     2     1     6 ar  
     3     1     7 1   
     4     2     3 ar  
     5     2     8 1   
     6     3     4 ar  
     7     3    11 1   
     8     4     5 ar  
     9     4     9 1   
    10     5     6 ar  
    11     5    10 1   
    12     6    12 1   
    13     7    13 1   
    14     8    14 1   
    15     9    15 1   
    16    10    16 1   
@<TRIPOS>SUBSTRUCTURE
     1 BTT         1 TEMP              0 ****  ****    0 ROOT
