@<TRIPOS>MOLECULE
BTT
   16    16     1     0     0
SMALL
abcg2


@<TRIPOS>ATOM
      1 C1           0.8720     0.0770     1.1980 ca         1 BTT       0.084600
      2 C2          -0.5180    -0.0420     1.1990 ca         1 BTT       0.084600
      3 C3          -1.1930    -0.2250    -0.0010 ca         1 BTT      -0.167500
      4 C4          -0.5020    -0.2880    -1.2030 ca         1 BTT       0.084600
      5 C5           0.8880    -0.1680    -1.2080 ca         1 BTT       0.084600
      6 C6           1.5580     0.0120    -0.0060 ca         1 BTT      -0.167500
      7 O1           1.5780     0.2590     2.3400 oh         1 BTT      -0.543100
      8 O2          -1.1360     0.0300     2.4050 oh         1 BTT      -0.543100
      9 O4          -1.1040    -0.4660    -2.4070 oh         1 BTT      -0.543100
     10 O5           1.6100    -0.2250    -2.3530 oh         1 BTT      -0.543100
     11 H3          -2.2750    -0.3170     0.0010 ha         1 BTT       0.131000
     12 H6           2.6380     0.1060    -0.0080 ha         1 BTT       0.131000
     13 HO1          0.9850     0.2700     3.1000 ho         1 BTT       0.476500
     14 HO2         -2.0900    -0.0620     2.3070 ho         1 BTT       0.476500
     15 HO4         -2.0620    -0.4720    -2.3120 ho         1 BTT       0.476500
     16 HO5          1.0220    -0.3200    -3.1110 ho         1 BTT       0.476500
@<TRIPOS>BOND
     1     1     2 ar  
     2     1     6 ar  
     3     1     7 1   
     4     2     3 ar  
     5     2     8 1   
     6     3     4 ar  
     7     3    11 1   
     8     4     5 ar  
     9     4     9 1   
    10     5     6 ar  
    11     5    10 1   
    12     6    12 1   
    13     7    13 1   
    14     8    14 1   
    15     9    15 1   
    16    10    16 1   
@<TRIPOS>SUBSTRUCTURE
     1 BTT         1 TEMP              0 ****  ****    0 ROOT
