@<TRIPOS>MOLECULE
BTV
   53    56     1     0     0
SMALL
bcc


@<TRIPOS>ATOM
      1 C16          6.8350     1.4540     0.6820 ca         1 BTV      -0.132500
      2 C19          9.5620    -0.8340    -0.6980 c          1 BTV       0.922200
      3 C22          7.3020    -1.2540     0.3820 ca         1 BTV      -0.108500
      4 N25          2.2100     0.8040    -0.7950 nc         1 BTV      -0.379000
      5 C02         -8.5010    -1.4960     0.4740 c          1 BTV       0.822500
      6 C04         -7.1850    -0.3460    -1.0850 c5         1 BTV       0.094700
      7 C05         -5.8740     0.4020    -0.8150 c5         1 BTV       0.026400
      8 C06         -4.6510    -0.4900    -0.7070 c3         1 BTV      -0.060400
      9 C07         -3.3480     0.2760    -0.5180 c3         1 BTV      -0.076400
     10 C08         -2.1320    -0.6420    -0.5010 c3         1 BTV      -0.075400
     11 C09         -0.8280     0.1080    -0.2630 c3         1 BTV      -0.074400
     12 C11          1.6590    -0.1040     0.0420 cc         1 BTV       0.254600
     13 C12          2.4570    -0.1690     1.1560 cd         1 BTV      -0.251600
     14 C14          4.5960     1.0300     1.7380 c3         1 BTV       0.111600
     15 C15          5.8780     0.5470     1.1170 ca         1 BTV      -0.158300
     16 C17          8.0180     1.0110     0.1040 ca         1 BTV      -0.108500
     17 C18          8.2670    -0.3480    -0.0570 ca         1 BTV      -0.113600
     18 C23          6.1240    -0.8150     0.9640 ca         1 BTV      -0.132500
     19 C27         -7.8190     1.8090     0.0440 c5         1 BTV      -0.021300
     20 C28         -8.3750     0.5580    -0.6460 c5         1 BTV       0.103700
     21 N03         -7.3510    -1.5120    -0.2540 ns         1 BTV      -0.574900
     22 N13          3.4420     0.7120     0.9130 na         1 BTV       0.120400
     23 N24          3.2820     1.2850    -0.2630 nd         1 BTV      -0.183800
     24 N29         -9.1100    -0.3090     0.2360 ns         1 BTV      -0.593900
     25 O20          9.7020    -2.0680    -0.8020 o          1 BTV      -0.821300
     26 O21         10.3670     0.0430    -1.0620 o          1 BTV      -0.821300
     27 S26         -6.1980     1.3490     0.7090 ss         1 BTV      -0.304200
     28 H1           6.6580     2.5180     0.7950 ha         1 BTV       0.104500
     29 H2           7.4810    -2.3150     0.2690 ha         1 BTV       0.149500
     30 H5          -5.7260     1.1210    -1.6270 h1         1 BTV       0.070700
     31 H6          -4.7850    -1.1990     0.1150 hc         1 BTV       0.050700
     32 H7          -4.5900    -1.0860    -1.6250 hc         1 BTV       0.050700
     33 H8          -3.2370     1.0150    -1.3190 hc         1 BTV       0.047200
     34 H9          -3.3830     0.8430     0.4180 hc         1 BTV       0.047200
     35 H10         -2.2600    -1.3990     0.2800 hc         1 BTV       0.035700
     36 H11         -2.0750    -1.1880    -1.4490 hc         1 BTV       0.035700
     37 H12         -0.6950     0.8720    -1.0350 hc         1 BTV       0.047700
     38 H13         -0.8800     0.6400     0.6920 hc         1 BTV       0.047700
     39 H16          2.3970    -0.7490     2.0620 h4         1 BTV       0.177000
     40 H17          4.4260     0.5660     2.7080 h1         1 BTV       0.055700
     41 H18          4.6200     2.1080     1.8930 h1         1 BTV       0.055700
     42 H19          8.7540     1.7300    -0.2280 ha         1 BTV       0.149500
     43 H20          5.3910    -1.5390     1.3030 ha         1 BTV       0.104500
     44 H21         -7.7010     2.6150    -0.6820 h1         1 BTV       0.075700
     45 H22         -8.4690     2.1640     0.8430 h1         1 BTV       0.075700
     46 H23         -8.9890     0.8610    -1.4980 h1         1 BTV       0.066700
     47 H25         -6.9040    -2.3860    -0.4740 hn         1 BTV       0.337500
     48 H26         -9.9090    -0.0040     0.7640 hn         1 BTV       0.340500
     49 O01         -8.9080    -2.3900     1.2020 o          1 BTV      -0.658500
     50 C10          0.3870    -0.8210    -0.2540 c3         1 BTV      -0.082700
     51 H3          -7.2410    -0.6050    -2.1470 h1         1 BTV       0.061700
     52 H14          0.2430    -1.6020     0.4950 hc         1 BTV       0.044700
     53 H15          0.4620    -1.3270    -1.2200 hc         1 BTV       0.044700
@<TRIPOS>BOND
     1     1    15 ar  
     2     1    16 ar  
     3     1    28 1   
     4     2    17 1   
     5     2    25 1   
     6     2    26 1   
     7     3    17 ar  
     8     3    18 ar  
     9     3    29 1   
    10     4    12 1   
    11     4    23 2   
    12     5    21 1   
    13     5    24 1   
    14     5    49 2   
    15     6     7 1   
    16     6    20 1   
    17     6    21 1   
    18     6    51 1   
    19     7     8 1   
    20     7    27 1   
    21     7    30 1   
    22     8     9 1   
    23     8    31 1   
    24     8    32 1   
    25     9    10 1   
    26     9    33 1   
    27     9    34 1   
    28    10    11 1   
    29    10    35 1   
    30    10    36 1   
    31    11    37 1   
    32    11    38 1   
    33    11    50 1   
    34    12    13 2   
    35    12    50 1   
    36    13    22 1   
    37    13    39 1   
    38    14    15 1   
    39    14    22 1   
    40    14    40 1   
    41    14    41 1   
    42    15    18 ar  
    43    16    17 ar  
    44    16    42 1   
    45    18    43 1   
    46    19    20 1   
    47    19    27 1   
    48    19    44 1   
    49    19    45 1   
    50    20    24 1   
    51    20    46 1   
    52    21    47 1   
    53    22    23 1   
    54    24    48 1   
    55    50    52 1   
    56    50    53 1   
@<TRIPOS>SUBSTRUCTURE
     1 BTV         1 TEMP              0 ****  ****    0 ROOT
