@<TRIPOS>MOLECULE
BTV
   53    56     1     0     0
SMALL
No Charge or Current Charge


@<TRIPOS>ATOM
      1 C16          7.1420     1.4100     0.8040 ca         1 BTV      -0.114500
      2 C19          9.6490    -1.4550     0.2290 c          1 BTV       0.711600
      3 C22          7.1230    -1.3880     0.6080 ca         1 BTV      -0.090500
      4 N25          2.2510     0.9910    -1.4280 nc         1 BTV      -0.379000
      5 C02         -8.3890    -1.7280     0.5050 c          1 BTV       0.613000
      6 C04         -7.3490    -0.3300    -1.0750 c5         1 BTV       0.094700
      7 C05         -6.0090     0.3790    -0.6560 c5         1 BTV       0.074300
      8 C06         -4.7130    -0.4650    -0.7940 c3         1 BTV      -0.060400
      9 C07         -3.4070     0.3320    -0.5640 c3         1 BTV      -0.076400
     10 C08         -2.1360    -0.5260    -0.7490 c3         1 BTV      -0.075400
     11 C09         -0.8320     0.2700    -0.5200 c3         1 BTV      -0.074400
     12 C11          1.7080     0.1910    -0.4640 cc         1 BTV       0.189300
     13 C12          2.4680     0.2180     0.6630 cd         1 BTV      -0.219000
     14 C14          4.6270     1.4870     1.1830 c3         1 BTV       0.140900
     15 C15          5.9250     0.7170     0.9300 ca         1 BTV      -0.158300
     16 C17          8.3420     0.7130     0.5770 ca         1 BTV      -0.090500
     17 C18          8.3510    -0.6980     0.4740 ca         1 BTV      -0.113600
     18 C23          5.9250    -0.6880     0.8350 ca         1 BTV      -0.114500
     19 C27         -7.9520     1.5360     0.5690 c5         1 BTV       0.026600
     20 C28         -8.5460     0.4430    -0.3830 c5         1 BTV       0.103700
     21 N03         -7.3890    -1.6330    -0.3990 ns         1 BTV      -0.507900
     22 N13          3.4970     1.0710     0.3350 na         1 BTV       0.141800
     23 N24          3.3410     1.5340    -0.9480 nd         1 BTV      -0.183800
     24 N29         -9.0970    -0.5760     0.5150 ns         1 BTV      -0.526900
     25 O20          9.6100    -2.6750     0.1490 o          1 BTV      -0.716000
     26 O21         10.6870    -0.8170     0.1190 o          1 BTV      -0.716000
     27 S26         -6.2780     0.9390     1.0870 ss         1 BTV      -0.400000
     28 H1           7.1640     2.4950     0.8800 ha         1 BTV       0.086500
     29 H2           7.0930    -2.4730     0.5380 ha         1 BTV       0.131500
     30 H5          -5.8840     1.2770    -1.2770 h1         1 BTV       0.070700
     31 H6          -4.7350    -1.3070    -0.0910 hc         1 BTV       0.050700
     32 H7          -4.6780    -0.9010    -1.8000 hc         1 BTV       0.050700
     33 H8          -3.3760     1.1790    -1.2610 hc         1 BTV       0.047200
     34 H9          -3.4090     0.7520     0.4490 hc         1 BTV       0.047200
     35 H10         -2.1680    -1.3730    -0.0520 hc         1 BTV       0.035700
     36 H11         -2.1280    -0.9450    -1.7630 hc         1 BTV       0.035700
     37 H12         -0.7990     1.1180    -1.2150 hc         1 BTV       0.047700
     38 H13         -0.8380     0.6890     0.4950 hc         1 BTV       0.047700
     39 H16          2.3630    -0.2770     1.6190 h4         1 BTV       0.159000
     40 H17          4.3350     1.3560     2.2320 h1         1 BTV       0.055700
     41 H18          4.7960     2.5600     1.0240 h1         1 BTV       0.055700
     42 H19          9.2670     1.2760     0.4810 ha         1 BTV       0.131500
     43 H20          4.9980    -1.2460     0.9390 ha         1 BTV       0.086500
     44 H21         -7.8300     2.4840     0.0280 h1         1 BTV       0.075700
     45 H22         -8.5880     1.7320     1.4420 h1         1 BTV       0.075700
     46 H23         -9.2860     0.8390    -1.0910 h1         1 BTV       0.066700
     47 H25         -6.7640    -2.4160    -0.5380 hn         1 BTV       0.337500
     48 H26         -9.8850    -0.4790     1.1440 hn         1 BTV       0.340500
     49 O01         -8.6270    -2.7040     1.1910 o          1 BTV      -0.583000
     50 C10          0.4400    -0.5850    -0.7040 c3         1 BTV      -0.082700
     51 H3          -7.4650    -0.4170    -2.1640 h1         1 BTV       0.061700
     52 H14          0.4020    -1.4390    -0.0170 hc         1 BTV       0.044700
     53 H15          0.4520    -1.0030    -1.7180 hc         1 BTV       0.044700
@<TRIPOS>BOND
     1     1    15 ar  
     2     1    16 ar  
     3     1    28 1   
     4     2    17 1   
     5     2    25 1   
     6     2    26 1   
     7     3    17 ar  
     8     3    18 ar  
     9     3    29 1   
    10     4    12 1   
    11     4    23 2   
    12     5    21 1   
    13     5    24 1   
    14     5    49 2   
    15     6     7 1   
    16     6    20 1   
    17     6    21 1   
    18     6    51 1   
    19     7     8 1   
    20     7    27 1   
    21     7    30 1   
    22     8     9 1   
    23     8    31 1   
    24     8    32 1   
    25     9    10 1   
    26     9    33 1   
    27     9    34 1   
    28    10    11 1   
    29    10    35 1   
    30    10    36 1   
    31    11    37 1   
    32    11    38 1   
    33    11    50 1   
    34    12    13 2   
    35    12    50 1   
    36    13    22 1   
    37    13    39 1   
    38    14    15 1   
    39    14    22 1   
    40    14    40 1   
    41    14    41 1   
    42    15    18 ar  
    43    16    17 ar  
    44    16    42 1   
    45    18    43 1   
    46    19    20 1   
    47    19    27 1   
    48    19    44 1   
    49    19    45 1   
    50    20    24 1   
    51    20    46 1   
    52    21    47 1   
    53    22    23 1   
    54    24    48 1   
    55    50    52 1   
    56    50    53 1   
@<TRIPOS>SUBSTRUCTURE
     1 BTV         1 TEMP              0 ****  ****    0 ROOT
