@<TRIPOS>MOLECULE
BTW
   27    27     1     0     0
SMALL
abcg2


@<TRIPOS>ATOM
      1 C1           0.0840    -0.9660    -0.4460 c3         1 BTW      -0.015100
      2 O1          -1.1630     1.6770    -0.8110 o          1 BTW      -0.729500
      3 C2          -0.8520    -0.2620     0.5430 c3         1 BTW      -0.197700
      4 C3          -2.2690    -0.8600     0.5310 c3         1 BTW       0.167300
      5 C4          -3.2000    -0.1700     1.5180 c3         1 BTW      -0.078100
      6 C5           1.5210    -0.5770    -0.2440 ca         1 BTW      -0.042300
      7 C6           2.3280    -1.2740     0.6540 ca         1 BTW      -0.098500
      8 C7           3.6490    -0.9030     0.8670 ca         1 BTW      -0.121500
      9 C8           4.1890     0.1770     0.1810 ca         1 BTW      -0.133000
     10 C10          2.0750     0.5060    -0.9260 ca         1 BTW      -0.098500
     11 C9           3.3960     0.8810    -0.7170 ca         1 BTW      -0.121500
     12 C11         -0.8640     1.2670     0.3360 c          1 BTW       0.716000
     13 O2          -0.5910     1.9810     1.3170 o          1 BTW      -0.729500
     14 S1          -3.0330    -0.9270    -1.1380 sh         1 BTW      -0.626800
     15 H1          -0.0210    -2.0480    -0.3230 hc         1 BTW       0.041700
     16 H1A         -0.2260    -0.7360    -1.4660 hc         1 BTW       0.041700
     17 H2          -0.4760    -0.4590     1.5540 hc         1 BTW       0.046700
     18 H3          -2.1790    -1.9130     0.8140 h1         1 BTW       0.036700
     19 H4          -3.4330     0.8480     1.2050 hc         1 BTW       0.035700
     20 H4A         -4.1410    -0.7130     1.6080 hc         1 BTW       0.035700
     21 H4B         -2.7430    -0.1220     2.5090 hc         1 BTW       0.035700
     22 H6           1.9180    -2.1220     1.1900 ha         1 BTW       0.118500
     23 H7           4.2580    -1.4590     1.5680 ha         1 BTW       0.094000
     24 H8           5.2190     0.4660     0.3420 ha         1 BTW       0.090000
     25 H10          1.4580     1.0630    -1.6200 ha         1 BTW       0.118500
     26 H9           3.8080     1.7230    -1.2590 ha         1 BTW       0.094000
     27 HS1         -2.6210     0.2970    -1.5030 hs         1 BTW       0.319800
@<TRIPOS>BOND
     1     1     3 1   
     2     1     6 1   
     3     1    15 1   
     4     1    16 1   
     5     2    12 1   
     6     3     4 1   
     7     3    12 1   
     8     3    17 1   
     9     4     5 1   
    10     4    14 1   
    11     4    18 1   
    12     5    19 1   
    13     5    20 1   
    14     5    21 1   
    15     6     7 ar  
    16     6    10 ar  
    17     7     8 ar  
    18     7    22 1   
    19     8     9 ar  
    20     8    23 1   
    21     9    11 ar  
    22     9    24 1   
    23    10    11 ar  
    24    10    25 1   
    25    11    26 1   
    26    12    13 1   
    27    14    27 1   
@<TRIPOS>SUBSTRUCTURE
     1 BTW         1 TEMP              0 ****  ****    0 ROOT
