@<TRIPOS>MOLECULE
BTW
   27    27     1     0     0
SMALL
No Charge or Current Charge


@<TRIPOS>ATOM
      1 C1           0.0860    -0.9360    -0.4880 c3         1 BTW      -0.015100
      2 O1          -1.3220     1.7340    -0.7270 o          1 BTW      -0.729500
      3 C2          -0.8840    -0.2570     0.5160 c3         1 BTW      -0.197700
      4 C3          -2.3110    -0.8670     0.4840 c3         1 BTW       0.167300
      5 C4          -3.2250    -0.2980     1.5900 c3         1 BTW      -0.078100
      6 C5           1.5420    -0.5470    -0.2540 ca         1 BTW      -0.042300
      7 C6           2.2890    -1.1760     0.7620 ca         1 BTW      -0.098500
      8 C7           3.6320    -0.8210     0.9790 ca         1 BTW      -0.121500
      9 C8           4.2360     0.1650     0.1820 ca         1 BTW      -0.133000
     10 C10          2.1540     0.4410    -1.0500 ca         1 BTW      -0.098500
     11 C9           3.4970     0.7960    -0.8320 ca         1 BTW      -0.121500
     12 C11         -0.9130     1.2760     0.3310 c          1 BTW       0.716000
     13 O2          -0.5360     1.9730     1.2610 o          1 BTW      -0.729500
     14 S1          -3.1090    -0.7290    -1.1790 sh         1 BTW      -0.626800
     15 H1          -0.0130    -2.0250    -0.3990 hc         1 BTW       0.041700
     16 H1A         -0.2070    -0.6930    -1.5170 hc         1 BTW       0.041700
     17 H2          -0.4880    -0.4550     1.5200 hc         1 BTW       0.046700
     18 H3          -2.2100    -1.9430     0.6840 h1         1 BTW       0.036700
     19 H4          -3.4240     0.7680     1.4300 hc         1 BTW       0.035700
     20 H4A         -4.1860    -0.8260     1.5990 hc         1 BTW       0.035700
     21 H4B         -2.7620    -0.4210     2.5760 hc         1 BTW       0.035700
     22 H6           1.8270    -1.9400     1.3840 ha         1 BTW       0.118500
     23 H7           4.2030    -1.3100     1.7650 ha         1 BTW       0.094000
     24 H8           5.2750     0.4400     0.3500 ha         1 BTW       0.090000
     25 H10          1.5870     0.9370    -1.8350 ha         1 BTW       0.118500
     26 H9           3.9630     1.5610    -1.4500 ha         1 BTW       0.094000
     27 HS1         -2.6070     0.5270    -1.3970 hs         1 BTW       0.319800
@<TRIPOS>BOND
     1     1     3 1   
     2     1     6 1   
     3     1    15 1   
     4     1    16 1   
     5     2    12 1   
     6     3     4 1   
     7     3    12 1   
     8     3    17 1   
     9     4     5 1   
    10     4    14 1   
    11     4    18 1   
    12     5    19 1   
    13     5    20 1   
    14     5    21 1   
    15     6     7 ar  
    16     6    10 ar  
    17     7     8 ar  
    18     7    22 1   
    19     8     9 ar  
    20     8    23 1   
    21     9    11 ar  
    22     9    24 1   
    23    10    11 ar  
    24    10    25 1   
    25    11    26 1   
    26    12    13 1   
    27    14    27 1   
@<TRIPOS>SUBSTRUCTURE
     1 BTW         1 TEMP              0 ****  ****    0 ROOT
