@<TRIPOS>MOLECULE
BTX
   66    70     1     0     0
SMALL
No Charge or Current Charge


@<TRIPOS>ATOM
      1 P            1.4210    -1.8920     3.4950 p5         1 BTX       1.405800
      2 O1P          2.6850    -1.1720     3.8300 o          1 BTX      -0.833000
      3 O2P          0.7380    -2.3760     4.7320 o          1 BTX      -0.833000
      4 O5           1.6860    -3.1100     2.4670 os         1 BTX      -0.573400
      5 C5           2.6340    -3.0250     1.3860 c3         1 BTX       0.216600
      6 C4           2.1220    -2.0920     0.2430 c5         1 BTX       0.155300
      7 O4           2.6940    -0.7600     0.4070 os         1 BTX      -0.422000
      8 C3           2.5770    -2.5590    -1.1850 c5         1 BTX       0.101300
      9 O3           1.7270    -2.0710    -2.2350 oh         1 BTX      -0.711000
     10 C2           3.9770    -1.8890    -1.2470 c5         1 BTX       0.071300
     11 O2           4.5180    -1.8750    -2.5830 oh         1 BTX      -0.699000
     12 C1           3.5900    -0.4780    -0.6910 c5         1 BTX       0.323300
     13 N9           4.6660     0.4030    -0.2340 na         1 BTX      -0.292300
     14 C8           6.0290     0.0820    -0.1740 cc         1 BTX       0.445700
     15 N7           6.7600     1.1280     0.2660 nd         1 BTX      -0.572100
     16 C10          5.8030     2.1260     0.4730 ca         1 BTX      -0.088600
     17 C6           5.9700     3.4510     0.9290 ca         1 BTX       0.436900
     18 N6           7.1830     3.9710     1.2560 nv         1 BTX      -1.076900
     19 N1           4.9200     4.2750     1.0690 nb         1 BTX      -0.318000
     20 C12          3.7100     3.7590     0.7420 ca         1 BTX       0.156900
     21 N3           3.4580     2.5050     0.2950 nb         1 BTX      -0.211000
     22 C11          4.5330     1.7010     0.1730 ca         1 BTX       0.116500
     23 CBB         -0.9280    -1.4170     2.4390 c3         1 BTX       0.226600
     24 OBB          0.4260    -0.9930     2.6040 os         1 BTX      -0.588400
     25 CAB         -1.5560    -0.5490     1.3300 c3         1 BTX      -0.084400
     26 C9B         -3.0260    -0.9210     1.0350 c3         1 BTX      -0.076400
     27 C8B         -3.6570    -0.0540    -0.0770 c3         1 BTX      -0.076400
     28 C7B         -5.1280    -0.4280    -0.3750 c3         1 BTX      -0.061400
     29 C2B         -5.7780     0.3970    -1.5170 c5         1 BTX       0.073300
     30 S1B         -5.9910     2.1730    -1.0420 ss         1 BTX      -0.390000
     31 C6B         -6.9780     2.4020    -2.5910 c5         1 BTX       0.022600
     32 C5B         -7.8970     1.1410    -2.7320 c5         1 BTX       0.102700
     33 N1B         -9.0440     1.4150    -1.8630 ns         1 BTX      -0.527900
     34 C3B         -9.0680     0.6380    -0.7570 c          1 BTX       0.614000
     35 O3B         -9.8980     0.7030     0.1290 o          1 BTX      -0.586000
     36 N2B         -8.0380    -0.2360    -0.8010 ns         1 BTX      -0.507900
     37 C4B         -7.2000    -0.0770    -1.9950 c5         1 BTX       0.096700
     38 H5'1         2.7860    -4.0320     0.9750 h1         1 BTX       0.023700
     39 H5'2         3.6110    -2.6740     1.7430 h1         1 BTX       0.023700
     40 H4           1.0280    -2.0370     0.2930 h1         1 BTX       0.095700
     41 H3           2.6540    -3.6540    -1.2450 h1         1 BTX       0.050700
     42 H13          2.3280    -1.9200    -3.0040 ho         1 BTX       0.510000
     43 H1           4.6700    -2.3930    -0.5570 h1         1 BTX       0.069700
     44 H2           4.9320    -2.7560    -2.7520 ho         1 BTX       0.504000
     45 H14          3.0470     0.0840    -1.4630 h2         1 BTX       0.101700
     46 H8           6.4190    -0.8900    -0.4590 h5         1 BTX       0.145800
     47 HN61         7.2030     4.8020     1.8400 hn         1 BTX       0.500000
     48 HN62         7.9520     3.3140     1.3670 hn         1 BTX       0.500000
     49 H12          2.8510     4.4190     0.8490 h5         1 BTX       0.031100
     50 H111        -0.9760    -2.4740     2.1460 h1         1 BTX       0.019200
     51 H112        -1.4930    -1.2850     3.3710 h1         1 BTX       0.019200
     52 H101        -1.5020     0.5050     1.6280 hc         1 BTX       0.047200
     53 H102        -0.9660    -0.6560     0.4120 hc         1 BTX       0.047200
     54 H9B1        -3.0780    -1.9780     0.7420 hc         1 BTX       0.034700
     55 H9B2        -3.6160    -0.8140     1.9540 hc         1 BTX       0.034700
     56 H8B1        -3.6000     1.0000     0.2180 hc         1 BTX       0.045200
     57 H8B2        -3.0660    -0.1610    -0.9960 hc         1 BTX       0.045200
     58 H7B1        -5.1670    -1.4930    -0.6390 hc         1 BTX       0.050200
     59 H7B2        -5.7090    -0.3160     0.5490 hc         1 BTX       0.050200
     60 H2B         -5.0950     0.3640    -2.3770 h1         1 BTX       0.068700
     61 H6B1        -7.5460     3.3410    -2.5610 h1         1 BTX       0.073200
     62 H6B2        -6.2830     2.4610    -3.4390 h1         1 BTX       0.073200
     63 H5B         -8.1840     0.9260    -3.7700 h1         1 BTX       0.062700
     64 H1B         -9.7500     2.1310    -1.9860 hn         1 BTX       0.338500
     65 H15         -7.9120    -0.9000    -0.0470 hn         1 BTX       0.339500
     66 H4B         -7.1640    -0.9870    -2.6090 h1         1 BTX       0.059700
@<TRIPOS>BOND
     1     1     2 1   
     2     1     3 1   
     3     1     4 1   
     4     1    24 1   
     5     4     5 1   
     6     5     6 1   
     7     5    38 1   
     8     5    39 1   
     9     6     7 1   
    10     6     8 1   
    11     6    40 1   
    12     7    12 1   
    13     8     9 1   
    14     8    10 1   
    15     8    41 1   
    16     9    42 1   
    17    10    11 1   
    18    10    12 1   
    19    10    43 1   
    20    11    44 1   
    21    12    13 1   
    22    12    45 1   
    23    13    14 1   
    24    13    22 1   
    25    14    15 2   
    26    14    46 1   
    27    15    16 1   
    28    16    17 ar  
    29    16    22 ar  
    30    17    18 1   
    31    17    19 ar  
    32    18    47 1   
    33    18    48 1   
    34    19    20 ar  
    35    20    21 ar  
    36    20    49 1   
    37    21    22 ar  
    38    23    24 1   
    39    23    25 1   
    40    23    50 1   
    41    23    51 1   
    42    25    26 1   
    43    25    52 1   
    44    25    53 1   
    45    26    27 1   
    46    26    54 1   
    47    26    55 1   
    48    27    28 1   
    49    27    56 1   
    50    27    57 1   
    51    28    29 1   
    52    28    58 1   
    53    28    59 1   
    54    29    30 1   
    55    29    37 1   
    56    29    60 1   
    57    30    31 1   
    58    31    32 1   
    59    31    61 1   
    60    31    62 1   
    61    32    33 1   
    62    32    37 1   
    63    32    63 1   
    64    33    34 1   
    65    33    64 1   
    66    34    35 2   
    67    34    36 1   
    68    36    37 1   
    69    36    65 1   
    70    37    66 1   
@<TRIPOS>SUBSTRUCTURE
     1 BTX         1 TEMP              0 ****  ****    0 ROOT
