@<TRIPOS>MOLECULE
BTX
   66    70     1     0     0
SMALL
abcg2


@<TRIPOS>ATOM
      1 P            1.0270    -3.0870     1.3090 p5         1 BTX       1.405800
      2 O1P          1.6850    -2.0160     2.1330 o          1 BTX      -0.833000
      3 O2P          0.5260    -4.3230     1.9920 o          1 BTX      -0.833000
      4 O5           1.9800    -3.4830     0.0330 os         1 BTX      -0.573400
      5 C5           3.3590    -3.6900     0.2330 c3         1 BTX       0.216600
      6 C4           4.1260    -3.1130    -0.9420 c5         1 BTX       0.155300
      7 O4           3.8210    -1.7250    -1.1160 os         1 BTX      -0.422000
      8 C3           5.6310    -3.1850    -0.7240 c5         1 BTX       0.101300
      9 O3           6.2700    -3.2370    -1.9730 oh         1 BTX      -0.711000
     10 C2           5.8850    -1.8410    -0.0340 c5         1 BTX       0.071300
     11 O2           7.1920    -1.3610    -0.1300 oh         1 BTX      -0.699000
     12 C1           4.9340    -0.9350    -0.8150 c5         1 BTX       0.323300
     13 N9           4.5050     0.2330    -0.0870 na         1 BTX      -0.292300
     14 C8           3.5950     0.2890     0.9370 cc         1 BTX       0.445700
     15 N7           3.4380     1.4920     1.4110 nd         1 BTX      -0.572100
     16 C10          4.2850     2.2710     0.6660 ca         1 BTX      -0.088600
     17 C6           4.5770     3.6470     0.6760 ca         1 BTX       0.436900
     18 N6           4.0140     4.4970     1.5370 nv         1 BTX      -1.076900
     19 N1           5.4640     4.1070    -0.2140 nb         1 BTX      -0.318000
     20 C12          6.0280     3.2530    -1.0650 ca         1 BTX       0.156900
     21 N3           5.8400     1.9500    -1.1670 nb         1 BTX      -0.211000
     22 C11          4.9570     1.5070    -0.2760 ca         1 BTX       0.116500
     23 CBB         -1.3990    -2.1620     0.9590 c3         1 BTX       0.226600
     24 OBB         -0.1450    -2.4520     0.3610 os         1 BTX      -0.588400
     25 CAB         -2.2490    -1.3920    -0.0310 c3         1 BTX      -0.084400
     26 C9B         -3.6250    -1.0590     0.5340 c3         1 BTX      -0.076400
     27 C8B         -4.4970    -0.3020    -0.4590 c3         1 BTX      -0.076400
     28 C7B         -5.8680     0.0410     0.1110 c3         1 BTX      -0.061400
     29 C2B         -6.7950     0.7050    -0.8910 c5         1 BTX       0.073300
     30 S1B         -6.1790     2.3220    -1.4660 ss         1 BTX      -0.390000
     31 C6B         -7.7930     2.6340    -2.2240 c5         1 BTX       0.022600
     32 C5B         -8.8410     2.1230    -1.2290 c5         1 BTX       0.102700
     33 N1B         -9.2180     3.0990    -0.2400 ns         1 BTX      -0.527900
     34 C3B         -8.8260     2.7880     1.0200 c          1 BTX       0.614000
     35 O3B         -9.0080     3.4590     2.0250 o          1 BTX      -0.586000
     36 N2B         -8.1980     1.5820     0.9590 ns         1 BTX      -0.507900
     37 C4B         -8.2040     0.9990    -0.3590 c5         1 BTX       0.096700
     38 H5'1         3.5790    -4.7620     0.2910 h1         1 BTX       0.023700
     39 H5'2         3.7030    -3.2390     1.1690 h1         1 BTX       0.023700
     40 H4           3.8370    -3.6410    -1.8560 h1         1 BTX       0.095700
     41 H3           5.9120    -4.0350    -0.0880 h1         1 BTX       0.050700
     42 H13          7.1860    -2.9630    -1.8510 ho         1 BTX       0.510000
     43 H1           5.5540    -1.9050     1.0100 h1         1 BTX       0.069700
     44 H2           7.7200    -1.7600     0.5690 ho         1 BTX       0.504000
     45 H14          5.4300    -0.5660    -1.7200 h2         1 BTX       0.101700
     46 H8           3.0530    -0.5860     1.2810 h5         1 BTX       0.145800
     47 HN61         4.2090     5.4820     1.4790 hn         1 BTX       0.500000
     48 HN62         3.3030     4.1890     2.1770 hn         1 BTX       0.500000
     49 H12          6.7350     3.6910    -1.7620 h5         1 BTX       0.031100
     50 H111        -1.9100    -3.0870     1.2490 h1         1 BTX       0.019200
     51 H112        -1.2710    -1.5670     1.8720 h1         1 BTX       0.019200
     52 H101        -1.7350    -0.4680    -0.3120 hc         1 BTX       0.047200
     53 H102        -2.3640    -1.9810    -0.9460 hc         1 BTX       0.047200
     54 H9B1        -4.1330    -1.9820     0.8330 hc         1 BTX       0.034700
     55 H9B2        -3.5140    -0.4640     1.4460 hc         1 BTX       0.034700
     56 H8B1        -3.9820     0.6140    -0.7660 hc         1 BTX       0.045200
     57 H8B2        -4.6190    -0.9020    -1.3670 hc         1 BTX       0.045200
     58 H7B1        -6.3520    -0.8780     0.4580 hc         1 BTX       0.050200
     59 H7B2        -5.7540     0.6850     0.9870 hc         1 BTX       0.050200
     60 H2B         -6.8960     0.0580    -1.7690 h1         1 BTX       0.068700
     61 H6B1        -7.9130     3.6950    -2.4390 h1         1 BTX       0.073200
     62 H6B2        -7.8690     2.0870    -3.1650 h1         1 BTX       0.073200
     63 H5B         -9.7160     1.7650    -1.7770 h1         1 BTX       0.062700
     64 H1B         -9.5800     4.0070    -0.4770 hn         1 BTX       0.338500
     65 H15         -8.0940     1.0220     1.7880 hn         1 BTX       0.339500
     66 H4B         -8.7990     0.0810    -0.3820 h1         1 BTX       0.059700
@<TRIPOS>BOND
     1     1     2 1   
     2     1     3 1   
     3     1     4 1   
     4     1    24 1   
     5     4     5 1   
     6     5     6 1   
     7     5    38 1   
     8     5    39 1   
     9     6     7 1   
    10     6     8 1   
    11     6    40 1   
    12     7    12 1   
    13     8     9 1   
    14     8    10 1   
    15     8    41 1   
    16     9    42 1   
    17    10    11 1   
    18    10    12 1   
    19    10    43 1   
    20    11    44 1   
    21    12    13 1   
    22    12    45 1   
    23    13    14 1   
    24    13    22 1   
    25    14    15 2   
    26    14    46 1   
    27    15    16 1   
    28    16    17 ar  
    29    16    22 ar  
    30    17    18 1   
    31    17    19 ar  
    32    18    47 1   
    33    18    48 1   
    34    19    20 ar  
    35    20    21 ar  
    36    20    49 1   
    37    21    22 ar  
    38    23    24 1   
    39    23    25 1   
    40    23    50 1   
    41    23    51 1   
    42    25    26 1   
    43    25    52 1   
    44    25    53 1   
    45    26    27 1   
    46    26    54 1   
    47    26    55 1   
    48    27    28 1   
    49    27    56 1   
    50    27    57 1   
    51    28    29 1   
    52    28    58 1   
    53    28    59 1   
    54    29    30 1   
    55    29    37 1   
    56    29    60 1   
    57    30    31 1   
    58    31    32 1   
    59    31    61 1   
    60    31    62 1   
    61    32    33 1   
    62    32    37 1   
    63    32    63 1   
    64    33    34 1   
    65    33    64 1   
    66    34    35 2   
    67    34    36 1   
    68    36    37 1   
    69    36    65 1   
    70    37    66 1   
@<TRIPOS>SUBSTRUCTURE
     1 BTX         1 TEMP              0 ****  ****    0 ROOT
