@<TRIPOS>MOLECULE
BTY
   19    20     1     0     0
SMALL
abcg2


@<TRIPOS>ATOM
      1 C1          -0.7690    -1.2510    -0.0470 cc         1 BTY       0.829700
      2 C3          -2.1540     0.6110     0.0430 c          1 BTY       0.733400
      3 C5           0.2280     0.9070     0.0560 cc         1 BTY       0.067600
      4 C8           2.3250     0.2490     0.0240 cd         1 BTY       0.329300
      5 O12         -3.2610     1.1200     0.0680 o          1 BTY      -0.519000
      6 N2          -1.9660    -0.7360    -0.0220 nd         1 BTY      -0.785100
      7 N4          -1.0260     1.4200     0.0790 ns         1 BTY      -0.533600
      8 C9           1.5020     1.4050     0.0790 cd         1 BTY      -0.292000
      9 C10          3.8110     0.2200     0.0200 c3         1 BTY      -0.131400
     10 N7           1.6240    -0.8620    -0.0290 nc         1 BTY      -0.546800
     11 N6           0.3390    -0.4460    -0.0080 na         1 BTY       0.036000
     12 N11         -0.5570    -2.5540    -0.1090 nv         1 BTY      -1.026200
     13 HN4         -1.1500     2.4210     0.1310 hn         1 BTY       0.463000
     14 H9           1.8100     2.4360     0.1260 ha         1 BTY       0.158000
     15 H101         4.2090     0.6810     0.9240 hc         1 BTY       0.055367
     16 H102         4.1810    -0.8010    -0.0380 hc         1 BTY       0.055367
     17 H103         4.2050     0.7790    -0.8290 hc         1 BTY       0.055367
     18 H111        -1.3430    -3.1800    -0.1540 hn         1 BTY       0.527000
     19 H112         0.3740    -2.9340    -0.1370 hn         1 BTY       0.527000
@<TRIPOS>BOND
     1     1     6 2   
     2     1    11 1   
     3     1    12 1   
     4     2     5 2   
     5     2     6 1   
     6     2     7 1   
     7     3     7 1   
     8     3     8 2   
     9     3    11 1   
    10     4     8 1   
    11     4     9 1   
    12     4    10 2   
    13     7    13 1   
    14     8    14 1   
    15     9    15 1   
    16     9    16 1   
    17     9    17 1   
    18    10    11 1   
    19    12    18 1   
    20    12    19 1   
@<TRIPOS>SUBSTRUCTURE
     1 BTY         1 TEMP              0 ****  ****    0 ROOT
