@<TRIPOS>MOLECULE
BTY
   19    20     1     0     0
SMALL
No Charge or Current Charge


@<TRIPOS>ATOM
      1 C1          -0.7490    -1.2990     0.1440 cc         1 BTY       0.829700
      2 C3          -2.1350     0.6470    -0.0150 c          1 BTY       0.733400
      3 C5           0.2240     0.8450     0.0000 cc         1 BTY       0.067600
      4 C8           2.3660     0.2430     0.0360 cd         1 BTY       0.329300
      5 O12         -3.2490     1.1270    -0.0650 o          1 BTY      -0.519000
      6 N2          -1.9450    -0.7430     0.0800 nd         1 BTY      -0.785100
      7 N4          -1.0120     1.4120    -0.0500 ns         1 BTY      -0.533600
      8 C9           1.4790     1.3580    -0.0370 cd         1 BTY      -0.292000
      9 C10          3.8650     0.3010     0.0250 c3         1 BTY      -0.131400
     10 N7           1.7390    -0.9280     0.1160 nc         1 BTY      -0.546800
     11 N6           0.4190    -0.4970     0.0960 na         1 BTY       0.036000
     12 N11         -0.6890    -2.6320     0.2210 nv         1 BTY      -1.026200
     13 HN4         -1.1490     2.4140    -0.1230 hn         1 BTY       0.463000
     14 H9           1.7570     2.4030    -0.1140 ha         1 BTY       0.158000
     15 H101         4.2810    -0.1440     0.9360 hc         1 BTY       0.055367
     16 H102         4.2720    -0.2430    -0.8350 hc         1 BTY       0.055367
     17 H103         4.2180     1.3370    -0.0350 hc         1 BTY       0.055367
     18 H111        -1.5120    -3.0920    -0.1420 hn         1 BTY       0.527000
     19 H112         0.2010    -3.0230    -0.0640 hn         1 BTY       0.527000
@<TRIPOS>BOND
     1     1     6 2   
     2     1    11 1   
     3     1    12 1   
     4     2     5 2   
     5     2     6 1   
     6     2     7 1   
     7     3     7 1   
     8     3     8 2   
     9     3    11 1   
    10     4     8 1   
    11     4     9 1   
    12     4    10 2   
    13     7    13 1   
    14     8    14 1   
    15     9    15 1   
    16     9    16 1   
    17     9    17 1   
    18    10    11 1   
    19    12    18 1   
    20    12    19 1   
@<TRIPOS>SUBSTRUCTURE
     1 BTY         1 TEMP              0 ****  ****    0 ROOT
