@<TRIPOS>MOLECULE
BU1
   16    15     1     0     0
SMALL
abcg2


@<TRIPOS>ATOM
      1 C1           0.4990     0.0030     1.9010 c3         1 BU1       0.164600
      2 C2          -0.4090     0.0060     0.6860 c3         1 BU1      -0.082400
      3 C3           0.3860    -0.0050    -0.6140 c3         1 BU1      -0.082400
      4 C4          -0.5210     0.0010    -1.8280 c3         1 BU1       0.164600
      5 O5          -0.2940     0.0110     3.0690 oh         1 BU1      -0.663000
      6 O6           0.2720    -0.0120    -2.9970 oh         1 BU1      -0.663000
      7 H11          1.1590     0.8790     1.8590 h1         1 BU1       0.017700
      8 H12          1.1470    -0.8830     1.8630 h1         1 BU1       0.017700
      9 H21         -1.0670    -0.8680     0.7240 hc         1 BU1       0.051700
     10 H22         -1.0530     0.8900     0.7170 hc         1 BU1       0.051700
     11 H31          1.0470     0.8670    -0.6510 hc         1 BU1       0.051700
     12 H32          1.0290    -0.8910    -0.6470 hc         1 BU1       0.051700
     13 H41         -1.1860    -0.8720    -1.7860 h1         1 BU1       0.017700
     14 H42         -1.1660     0.8900    -1.7910 h1         1 BU1       0.017700
     15 HO5          0.2920     0.0060     3.8300 ho         1 BU1       0.443000
     16 HO6         -0.3150    -0.0050    -3.7580 ho         1 BU1       0.443000
@<TRIPOS>BOND
     1     1     2 1   
     2     1     5 1   
     3     1     7 1   
     4     1     8 1   
     5     2     3 1   
     6     2     9 1   
     7     2    10 1   
     8     3     4 1   
     9     3    11 1   
    10     3    12 1   
    11     4     6 1   
    12     4    13 1   
    13     4    14 1   
    14     5    15 1   
    15     6    16 1   
@<TRIPOS>SUBSTRUCTURE
     1 BU1         1 TEMP              0 ****  ****    0 ROOT
