@<TRIPOS>MOLECULE
BU1
   16    15     1     0     0
SMALL
No Charge or Current Charge


@<TRIPOS>ATOM
      1 C1           0.5060     0.0010     1.9430 c3         1 BU1       0.164600
      2 C2          -0.4060     0.0060     0.7000 c3         1 BU1      -0.082400
      3 C3           0.3840    -0.0040    -0.6280 c3         1 BU1      -0.082400
      4 C4          -0.5280     0.0010    -1.8710 c3         1 BU1       0.164600
      5 O5          -0.2950     0.0120     3.1290 oh         1 BU1      -0.663000
      6 O6           0.2720    -0.0100    -3.0570 oh         1 BU1      -0.663000
      7 H11          1.1590     0.8840     1.9180 h1         1 BU1       0.017700
      8 H12          1.1430    -0.8930     1.9220 h1         1 BU1       0.017700
      9 H21         -1.0650    -0.8700     0.7350 hc         1 BU1       0.051700
     10 H22         -1.0500     0.8950     0.7310 hc         1 BU1       0.051700
     11 H31          1.0430     0.8720    -0.6630 hc         1 BU1       0.051700
     12 H32          1.0270    -0.8930    -0.6580 hc         1 BU1       0.051700
     13 H41         -1.1820    -0.8820    -1.8460 h1         1 BU1       0.017700
     14 H42         -1.1650     0.8950    -1.8500 h1         1 BU1       0.017700
     15 HO5          0.3260     0.0080     3.8920 ho         1 BU1       0.443000
     16 HO6         -0.3480    -0.0060    -3.8200 ho         1 BU1       0.443000
@<TRIPOS>BOND
     1     1     2 1   
     2     1     5 1   
     3     1     7 1   
     4     1     8 1   
     5     2     3 1   
     6     2     9 1   
     7     2    10 1   
     8     3     4 1   
     9     3    11 1   
    10     3    12 1   
    11     4     6 1   
    12     4    13 1   
    13     4    14 1   
    14     5    15 1   
    15     6    16 1   
@<TRIPOS>SUBSTRUCTURE
     1 BU1         1 TEMP              0 ****  ****    0 ROOT
