@<TRIPOS>MOLECULE
BU2
   16    15     1     0     0
SMALL
abcg2


@<TRIPOS>ATOM
      1 C1           0.2980    -0.3100    -1.4580 c3         1 BU2       0.166600
      2 O1          -0.3330     0.1160    -2.6490 oh         1 BU2      -0.667000
      3 C2          -0.5420     0.1380    -0.2770 c3         1 BU2      -0.116400
      4 C3           0.0050    -0.3430     1.0630 c3         1 BU2       0.166300
      5 O3           1.3340     0.0980     1.2840 oh         1 BU2      -0.660000
      6 C4          -0.9100     0.0540     2.2130 c3         1 BU2      -0.125100
      7 HC11         1.3090     0.1040    -1.3730 h1         1 BU2       0.023700
      8 HC12         0.4000    -1.4040    -1.4320 h1         1 BU2       0.023700
      9 HO1          0.2360    -0.1190    -3.3870 ho         1 BU2       0.443000
     10 HC21        -1.5590    -0.2500    -0.3930 hc         1 BU2       0.055200
     11 HC22        -0.6240     1.2310    -0.2700 hc         1 BU2       0.055200
     12 HC3          0.0710    -1.4350     1.0360 h1         1 BU2       0.069700
     13 HO3          1.3250     1.0610     1.3230 ho         1 BU2       0.438000
     14 HC41        -0.5260    -0.3170     3.1640 hc         1 BU2       0.042033
     15 HC42        -1.0030     1.1410     2.2840 hc         1 BU2       0.042033
     16 HC43        -1.9120    -0.3540     2.0750 hc         1 BU2       0.042033
@<TRIPOS>BOND
     1     1     2 1   
     2     1     3 1   
     3     1     7 1   
     4     1     8 1   
     5     2     9 1   
     6     3     4 1   
     7     3    10 1   
     8     3    11 1   
     9     4     5 1   
    10     4     6 1   
    11     4    12 1   
    12     5    13 1   
    13     6    14 1   
    14     6    15 1   
    15     6    16 1   
@<TRIPOS>SUBSTRUCTURE
     1 BU2         1 TEMP              0 ****  ****    0 ROOT
