@<TRIPOS>MOLECULE
BU2
   16    15     1     0     0
SMALL
No Charge or Current Charge


@<TRIPOS>ATOM
      1 C1           0.2990    -0.3280    -1.4960 c3         1 BU2       0.166600
      2 O1          -0.3070     0.1420    -2.7050 oh         1 BU2      -0.667000
      3 C2          -0.5270     0.1520    -0.2850 c3         1 BU2      -0.116400
      4 C3           0.0090    -0.3590     1.0720 c3         1 BU2       0.166300
      5 O3           1.3170     0.1730     1.3040 oh         1 BU2      -0.660000
      6 C4          -0.8980     0.0410     2.2510 c3         1 BU2      -0.125100
      7 HC11         1.3270     0.0500    -1.4150 h1         1 BU2       0.023700
      8 HC12         0.3410    -1.4260    -1.4940 h1         1 BU2       0.023700
      9 HO1          0.2510    -0.1810    -3.4480 ho         1 BU2       0.443000
     10 HC21        -1.5600    -0.1980    -0.4070 hc         1 BU2       0.055200
     11 HC22        -0.5630     1.2480    -0.2800 hc         1 BU2       0.055200
     12 HC3          0.0520    -1.4570     1.0340 h1         1 BU2       0.069700
     13 HO3          1.2140     1.1410     1.4290 ho         1 BU2       0.438000
     14 HC41        -0.4930    -0.3390     3.1970 hc         1 BU2       0.042033
     15 HC42        -0.9920     1.1320     2.3270 hc         1 BU2       0.042033
     16 HC43        -1.9030    -0.3800     2.1210 hc         1 BU2       0.042033
@<TRIPOS>BOND
     1     1     2 1   
     2     1     3 1   
     3     1     7 1   
     4     1     8 1   
     5     2     9 1   
     6     3     4 1   
     7     3    10 1   
     8     3    11 1   
     9     4     5 1   
    10     4     6 1   
    11     4    12 1   
    12     5    13 1   
    13     6    14 1   
    14     6    15 1   
    15     6    16 1   
@<TRIPOS>SUBSTRUCTURE
     1 BU2         1 TEMP              0 ****  ****    0 ROOT
