@<TRIPOS>MOLECULE
BU3
   16    15     1     0     0
SMALL
No Charge or Current Charge


@<TRIPOS>ATOM
      1 O6           1.1940    -0.6270     1.1010 oh         1 BU3      -0.661000
      2 C3           0.3310     0.4680     0.7760 c3         1 BU3       0.137800
      3 C4          -0.7360     0.5970     1.8840 c3         1 BU3      -0.123100
      4 C2          -0.2820     0.2340    -0.6420 c3         1 BU3       0.137800
      5 O5          -0.8850    -1.0710    -0.7040 oh         1 BU3      -0.661000
      6 C1           0.7570     0.3460    -1.7780 c3         1 BU3      -0.123100
      7 HO6          0.7740    -1.3990     0.6560 ho         1 BU3       0.439500
      8 H3           0.9030     1.4070     0.7530 h1         1 BU3       0.071700
      9 H41         -0.2620     0.7880     2.8540 hc         1 BU3       0.045033
     10 H42         -1.4140     1.4310     1.6680 hc         1 BU3       0.045033
     11 H43         -1.3350    -0.3190     1.9680 hc         1 BU3       0.045033
     12 H2          -1.0440     1.0100    -0.8090 h1         1 BU3       0.071700
     13 HO5         -1.3530    -1.1350    -1.5660 ho         1 BU3       0.439500
     14 H11          0.2760     0.2280    -2.7560 hc         1 BU3       0.045033
     15 H12          1.2410     1.3300    -1.7580 hc         1 BU3       0.045033
     16 H13          1.5360    -0.4200    -1.6830 hc         1 BU3       0.045033
@<TRIPOS>BOND
     1     1     2 1   
     2     1     7 1   
     3     2     3 1   
     4     2     4 1   
     5     2     8 1   
     6     3     9 1   
     7     3    10 1   
     8     3    11 1   
     9     4     5 1   
    10     4     6 1   
    11     4    12 1   
    12     5    13 1   
    13     6    14 1   
    14     6    15 1   
    15     6    16 1   
@<TRIPOS>SUBSTRUCTURE
     1 BU3         1 TEMP              0 ****  ****    0 ROOT
