@<TRIPOS>MOLECULE
BU3
   16    15     1     0     0
SMALL
bcc


@<TRIPOS>ATOM
      1 O6           1.2010    -0.7170     0.8210 oh         1 BU3      -0.598800
      2 C3           0.3310     0.3930     0.6820 c3         1 BU3       0.114600
      3 C4          -0.6560     0.4720     1.8350 c3         1 BU3      -0.123100
      4 C2          -0.3700     0.3910    -0.6830 c3         1 BU3       0.114600
      5 O5          -1.2260    -0.7310    -0.8250 oh         1 BU3      -0.598800
      6 C1           0.6150     0.4850    -1.8370 c3         1 BU3      -0.123100
      7 HO6          0.6670    -1.4940     1.0170 ho         1 BU3       0.400500
      8 H3           0.9750     1.2790     0.7120 h1         1 BU3       0.071700
      9 H41         -0.1340     0.5100     2.7920 hc         1 BU3       0.045033
     10 H42         -1.2750     1.3670     1.7580 hc         1 BU3       0.045033
     11 H43         -1.3220    -0.3930     1.8460 hc         1 BU3       0.045033
     12 H2          -1.0250     1.2680    -0.7110 h1         1 BU3       0.071700
     13 HO5         -0.6850    -1.4960    -1.0430 ho         1 BU3       0.400500
     14 H11          0.0910     0.5280    -2.7920 hc         1 BU3       0.045033
     15 H12          1.2290     1.3820    -1.7530 hc         1 BU3       0.045033
     16 H13          1.2860    -0.3760    -1.8550 hc         1 BU3       0.045033
@<TRIPOS>BOND
     1     1     2 1   
     2     1     7 1   
     3     2     3 1   
     4     2     4 1   
     5     2     8 1   
     6     3     9 1   
     7     3    10 1   
     8     3    11 1   
     9     4     5 1   
    10     4     6 1   
    11     4    12 1   
    12     5    13 1   
    13     6    14 1   
    14     6    15 1   
    15     6    16 1   
@<TRIPOS>SUBSTRUCTURE
     1 BU3         1 TEMP              0 ****  ****    0 ROOT
