@<TRIPOS>MOLECULE
BU4
   16    15     1     0     0
SMALL
No Charge or Current Charge


@<TRIPOS>ATOM
      1 C1          -1.4970    -0.2790    -0.2550 c3         1 BU4       0.165600
      2 O1          -2.7170     0.3290     0.1870 oh         1 BU4      -0.667000
      3 C2          -0.2950     0.5720     0.2030 c3         1 BU4      -0.076400
      4 C3           1.0690     0.0340    -0.2890 c3         1 BU4       0.172300
      5 O3           1.3100    -1.2580     0.2730 oh         1 BU4      -0.664000
      6 C4           2.2380     0.9610     0.0930 c3         1 BU4      -0.127100
      7 H1          -1.4080    -1.2930     0.1570 h1         1 BU4       0.023200
      8 H1A         -1.4880    -0.3580    -1.3510 h1         1 BU4       0.023200
      9 HO1         -3.4510    -0.2500    -0.1190 ho         1 BU4       0.442000
     10 H2          -0.4260     1.5940    -0.1740 hc         1 BU4       0.059200
     11 H2A         -0.2900     0.6340     1.2980 hc         1 BU4       0.059200
     12 H3           1.0360    -0.0380    -1.3850 h1         1 BU4       0.024700
     13 HO3          2.1710    -1.5690    -0.0840 ho         1 BU4       0.440000
     14 H4           2.3170     1.0650     1.1820 hc         1 BU4       0.041700
     15 H4A          3.1880     0.5670    -0.2870 hc         1 BU4       0.041700
     16 H4B          2.0920     1.9600    -0.3360 hc         1 BU4       0.041700
@<TRIPOS>BOND
     1     1     2 1   
     2     1     3 1   
     3     1     7 1   
     4     1     8 1   
     5     2     9 1   
     6     3     4 1   
     7     3    10 1   
     8     3    11 1   
     9     4     5 1   
    10     4     6 1   
    11     4    12 1   
    12     5    13 1   
    13     6    14 1   
    14     6    15 1   
    15     6    16 1   
@<TRIPOS>SUBSTRUCTURE
     1 BU4         1 TEMP              0 ****  ****    0 ROOT
