@<TRIPOS>MOLECULE
BU4
   16    15     1     0     0
SMALL
abcg2


@<TRIPOS>ATOM
      1 C1          -1.4530    -0.2880    -0.2520 c3         1 BU4       0.165600
      2 O1          -2.6490     0.3470     0.1530 oh         1 BU4      -0.667000
      3 C2          -0.2800     0.5630     0.1970 c3         1 BU4      -0.076400
      4 C3           1.0620     0.0420    -0.2920 c3         1 BU4       0.172300
      5 O3           1.2440    -1.2560     0.2490 oh         1 BU4      -0.664000
      6 C4           2.2010     0.9710     0.1010 c3         1 BU4      -0.127100
      7 H1          -1.3720    -1.2930     0.1770 h1         1 BU4       0.023200
      8 H1A         -1.4160    -0.4050    -1.3450 h1         1 BU4       0.023200
      9 HO1         -3.3840    -0.2310    -0.0710 ho         1 BU4       0.442000
     10 H2          -0.4080     1.5790    -0.1890 hc         1 BU4       0.059200
     11 H2A         -0.2680     0.6380     1.2890 hc         1 BU4       0.059200
     12 H3           1.0280    -0.0110    -1.3900 h1         1 BU4       0.024700
     13 HO3          2.0580    -1.6200    -0.1110 ho         1 BU4       0.440000
     14 H4           2.2710     1.0700     1.1860 hc         1 BU4       0.041700
     15 H4A          3.1590     0.5980    -0.2680 hc         1 BU4       0.041700
     16 H4B          2.0540     1.9660    -0.3220 hc         1 BU4       0.041700
@<TRIPOS>BOND
     1     1     2 1   
     2     1     3 1   
     3     1     7 1   
     4     1     8 1   
     5     2     9 1   
     6     3     4 1   
     7     3    10 1   
     8     3    11 1   
     9     4     5 1   
    10     4     6 1   
    11     4    12 1   
    12     5    13 1   
    13     6    14 1   
    14     6    15 1   
    15     6    16 1   
@<TRIPOS>SUBSTRUCTURE
     1 BU4         1 TEMP              0 ****  ****    0 ROOT
