@<TRIPOS>MOLECULE
BU5
   25    27     1     0     0
SMALL
abcg2


@<TRIPOS>ATOM
      1 C10          0.7090    -0.0800     0.0060 cc         1 BU5       0.481900
      2 C13          2.8250     1.1080     0.0200 cc         1 BU5      -0.244000
      3 C15          4.1670    -1.0580     0.0130 c3         1 BU5       0.136300
      4 C01         -2.0180     1.7540    -0.0210 cc         1 BU5      -0.245200
      5 C02         -3.3730     1.9290    -0.0270 cd         1 BU5      -0.145100
      6 C04         -3.0690    -0.2680    -0.0110 ca         1 BU5       0.363500
      7 C05         -1.7880     0.3440    -0.0100 ca         1 BU5      -0.120800
      8 C06         -0.6830    -0.5210     0.0010 ca         1 BU5      -0.052500
      9 C07         -0.9570    -1.8870     0.0090 ca         1 BU5      -0.152000
     10 C08         -2.2700    -2.3490     0.0060 ca         1 BU5       0.347900
     11 C12          2.9100    -0.2510     0.0130 cd         1 BU5       0.279300
     12 N03         -4.0020     0.7220    -0.0210 na         1 BU5      -0.323400
     13 N09         -3.3360    -1.5610    -0.0030 nb         1 BU5      -0.674000
     14 N11          1.7170    -0.9020     0.0050 nd         1 BU5      -0.649000
     15 O16          5.2660    -0.1880     0.0140 oh         1 BU5      -0.661000
     16 S14          1.1840     1.5820     0.0180 ss         1 BU5       0.000600
     17 H1           3.6180     1.8380     0.0280 h4         1 BU5       0.174000
     18 H2           4.1570    -1.7160     0.8920 h1         1 BU5       0.038700
     19 H3           4.1580    -1.7160    -0.8660 h1         1 BU5       0.038700
     20 H5          -3.9420     2.8450    -0.0360 h4         1 BU5       0.216000
     21 H6          -0.1480    -2.6030     0.0180 ha         1 BU5       0.143000
     22 H7          -2.4580    -3.4170     0.0130 h4         1 BU5       0.022100
     23 H8          -4.9990     0.5800    -0.0210 hn         1 BU5       0.363000
     24 H9           6.0690    -0.7170     0.0190 ho         1 BU5       0.450000
     25 H4          -1.3030     2.5590    -0.0260 ha         1 BU5       0.210000
@<TRIPOS>BOND
     1     1     8 1   
     2     1    14 2   
     3     1    16 1   
     4     2    11 2   
     5     2    16 1   
     6     2    17 1   
     7     3    11 1   
     8     3    15 1   
     9     3    18 1   
    10     3    19 1   
    11     4     5 2   
    12     4     7 1   
    13     4    25 1   
    14     5    12 1   
    15     5    20 1   
    16     6     7 ar  
    17     6    12 1   
    18     6    13 ar  
    19     7     8 ar  
    20     8     9 ar  
    21     9    10 ar  
    22     9    21 1   
    23    10    13 ar  
    24    10    22 1   
    25    11    14 1   
    26    12    23 1   
    27    15    24 1   
@<TRIPOS>SUBSTRUCTURE
     1 BU5         1 TEMP              0 ****  ****    0 ROOT
