@<TRIPOS>MOLECULE
BU5
   25    27     1     0     0
SMALL
No Charge or Current Charge


@<TRIPOS>ATOM
      1 C10          0.6780    -0.1370     0.3250 cc         1 BU5       0.481900
      2 C13          2.7700     0.9390     0.9070 cc         1 BU5      -0.244000
      3 C15          4.2290    -0.8830    -0.1690 c3         1 BU5       0.136300
      4 C01         -1.8880     1.6830    -0.1670 cc         1 BU5      -0.245200
      5 C02         -3.2180     2.0070    -0.3670 cd         1 BU5      -0.145100
      6 C04         -3.1040    -0.2380    -0.1360 ca         1 BU5       0.363500
      7 C05         -1.8200     0.2550    -0.0060 ca         1 BU5      -0.120800
      8 C06         -0.7160    -0.5990     0.2100 ca         1 BU5      -0.052500
      9 C07         -1.0240    -1.9790     0.2260 ca         1 BU5      -0.152000
     10 C08         -2.3600    -2.4050     0.0870 ca         1 BU5       0.347900
     11 C12          2.9050    -0.2480     0.2240 cd         1 BU5       0.279300
     12 N03         -3.9770     0.8130    -0.3380 na         1 BU5      -0.323400
     13 N09         -3.3970    -1.5500    -0.0880 nb         1 BU5      -0.674000
     14 N11          1.7040    -0.8750    -0.0900 nd         1 BU5      -0.649000
     15 O16          4.9370    -0.1160    -1.1650 oh         1 BU5      -0.661000
     16 S14          1.0990     1.3250     1.1880 ss         1 BU5       0.000600
     17 H1           3.5470     1.6020     1.2610 h4         1 BU5       0.174000
     18 H2           4.8420    -0.9820     0.7360 h1         1 BU5       0.038700
     19 H3           4.0380    -1.8980    -0.5420 h1         1 BU5       0.038700
     20 H5          -3.6750     2.9830    -0.5340 h4         1 BU5       0.216000
     21 H6          -0.2440    -2.7240     0.3590 ha         1 BU5       0.143000
     22 H7          -2.6070    -3.4660     0.1120 h4         1 BU5       0.022100
     23 H8          -4.9780     0.7230    -0.4580 hn         1 BU5       0.363000
     24 H9           5.7660    -0.6060    -1.3700 ho         1 BU5       0.450000
     25 H4          -1.0720     2.4030    -0.1690 ha         1 BU5       0.210000
@<TRIPOS>BOND
     1     1     8 1   
     2     1    14 2   
     3     1    16 1   
     4     2    11 2   
     5     2    16 1   
     6     2    17 1   
     7     3    11 1   
     8     3    15 1   
     9     3    18 1   
    10     3    19 1   
    11     4     5 2   
    12     4     7 1   
    13     4    25 1   
    14     5    12 1   
    15     5    20 1   
    16     6     7 ar  
    17     6    12 1   
    18     6    13 ar  
    19     7     8 ar  
    20     8     9 ar  
    21     9    10 ar  
    22     9    21 1   
    23    10    13 ar  
    24    10    22 1   
    25    11    14 1   
    26    12    23 1   
    27    15    24 1   
@<TRIPOS>SUBSTRUCTURE
     1 BU5         1 TEMP              0 ****  ****    0 ROOT
