@<TRIPOS>MOLECULE
BU6
   39    41     1     0     0
SMALL
No Charge or Current Charge


@<TRIPOS>ATOM
      1 C1           2.6930    -1.9540     1.5470 ca         1 BU6      -0.027000
      2 C2           2.7470    -0.7960     2.3420 ca         1 BU6      -0.177000
      3 C3           2.5330     0.4690     1.7710 ca         1 BU6       0.278000
      4 C4           2.2620     0.5850     0.3920 ca         1 BU6      -0.339500
      5 C5           2.2140    -0.5820    -0.4040 ca         1 BU6       0.009000
      6 C6           2.4270    -1.8450     0.1740 ca         1 BU6       0.073000
      7 Cl7          2.3540    -3.2910    -0.8250 cl         1 BU6      -0.181000
      8 S8           1.9520     2.1630    -0.3980 sy         1 BU6       1.149600
      9 O9           1.9490     3.2690     0.5620 o          1 BU6      -0.520500
     10 O10          2.6920     2.2240    -1.6590 o          1 BU6      -0.520500
     11 N11          0.3570     2.0710    -0.9320 nu         1 BU6      -0.827100
     12 C12         -0.6780     1.4160    -0.2870 cc         1 BU6       0.088000
     13 C13         -0.8300     1.2980     1.1150 cc         1 BU6       0.290900
     14 N14         -1.9010     0.6190     1.4820 nd         1 BU6      -0.515800
     15 N15         -2.4660     0.2900     0.2570 na         1 BU6       0.149800
     16 C16         -1.7380     0.7750    -0.8390 cd         1 BU6      -0.187000
     17 C17         -3.7140    -0.5050     0.1670 c6         1 BU6       0.090300
     18 C18         -4.8460     0.2890    -0.5370 c6         1 BU6      -0.091400
     19 C19         -6.1250    -0.5720    -0.6500 c6         1 BU6       0.161300
     20 N20         -5.8420    -1.8550    -1.3390 n7         1 BU6      -0.867400
     21 C21         -4.7910    -2.6570    -0.6670 c6         1 BU6       0.161300
     22 C22         -3.4730    -1.8570    -0.5550 c6         1 BU6      -0.091400
     23 F23          2.5930     1.5500     2.5770 f          1 BU6      -0.140000
     24 H1           2.8580    -2.9330     1.9930 ha         1 BU6       0.136000
     25 H2           2.9540    -0.8760     3.4060 ha         1 BU6       0.139000
     26 H5           2.0040    -0.5180    -1.4710 ha         1 BU6       0.157000
     27 H11          0.4080     1.9640    -1.9380 hn         1 BU6       0.489000
     28 H13         -0.1810     1.6960     1.8830 h4         1 BU6       0.061100
     29 H16         -2.0260     0.6190    -1.8710 h4         1 BU6       0.160000
     30 H17         -4.0430    -0.7230     1.1930 h1         1 BU6       0.088700
     31 H181        -5.0660     1.2080     0.0210 hc         1 BU6       0.059200
     32 H182        -4.5280     0.5970    -1.5420 hc         1 BU6       0.059200
     33 H221        -3.0660    -1.6850    -1.5610 hc         1 BU6       0.059200
     34 H222        -2.7260    -2.4480    -0.0090 hc         1 BU6       0.059200
     35 H191        -6.5220    -0.7750     0.3560 h1         1 BU6       0.037200
     36 H192        -6.8950    -0.0170    -1.2060 h1         1 BU6       0.037200
     37 H20         -6.7090    -2.4090    -1.3770 hn         1 BU6       0.419000
     38 H211        -5.1340    -2.9440     0.3380 h1         1 BU6       0.037200
     39 H212        -4.6140    -3.5820    -1.2360 h1         1 BU6       0.037200
@<TRIPOS>BOND
     1     1     2 ar  
     2     1     6 ar  
     3     1    24 1   
     4     2     3 ar  
     5     2    25 1   
     6     3     4 ar  
     7     3    23 1   
     8     4     5 ar  
     9     4     8 1   
    10     5     6 ar  
    11     5    26 1   
    12     6     7 1   
    13     8     9 2   
    14     8    10 2   
    15     8    11 1   
    16    11    12 1   
    17    11    27 1   
    18    12    13 1   
    19    12    16 2   
    20    13    14 2   
    21    13    28 1   
    22    14    15 1   
    23    15    16 1   
    24    15    17 1   
    25    16    29 1   
    26    17    18 1   
    27    17    22 1   
    28    17    30 1   
    29    18    19 1   
    30    18    31 1   
    31    18    32 1   
    32    19    20 1   
    33    19    35 1   
    34    19    36 1   
    35    20    21 1   
    36    20    37 1   
    37    21    22 1   
    38    21    38 1   
    39    21    39 1   
    40    22    33 1   
    41    22    34 1   
@<TRIPOS>SUBSTRUCTURE
     1 BU6         1 TEMP              0 ****  ****    0 ROOT
