@<TRIPOS>MOLECULE
BU6
   39    41     1     0     0
SMALL
bcc


@<TRIPOS>ATOM
      1 C1           1.8240    -2.5540     0.1640 ca         1 BU6      -0.045000
      2 C2           1.0860    -1.8660     1.1110 ca         1 BU6      -0.195000
      3 C3           1.1180    -0.4850     1.1280 ca         1 BU6       0.242900
      4 C4           1.8700     0.2240     0.2000 ca         1 BU6      -0.339500
      5 C5           2.6120    -0.4670    -0.7500 ca         1 BU6      -0.009000
      6 C6           2.5830    -1.8490    -0.7590 ca         1 BU6      -0.018600
      7 CL7          3.5100    -2.7090    -1.9360 cl         1 BU6      -0.089400
      8 S8           1.8950     2.0050     0.1510 sy         1 BU6       1.291200
      9 O9           1.7780     2.5010     1.5050 o          1 BU6      -0.591300
     10 O10          3.0110     2.4070    -0.6840 o          1 BU6      -0.591300
     11 N11          0.5280     2.4510    -0.6730 nu         1 BU6      -0.633500
     12 C12         -0.7120     2.0470    -0.1460 cc         1 BU6      -0.115700
     13 C13         -1.4540     2.6740     0.8650 cc         1 BU6       0.356200
     14 N14         -2.5460     1.9860     1.1330 nd         1 BU6      -0.515800
     15 N15         -2.5240     0.9360     0.3150 na         1 BU6       0.128400
     16 C16         -1.4390     0.9220    -0.4730 cd         1 BU6      -0.154300
     17 C17         -3.5960    -0.0470     0.3410 c6         1 BU6       0.061000
     18 C18         -4.4550     0.0170    -0.9180 c6         1 BU6      -0.091400
     19 C19         -5.5310    -1.0600    -0.8680 c6         1 BU6       0.161300
     20 N20         -4.9180    -2.3650    -0.7070 n7         1 BU6      -0.812200
     21 C21         -4.1880    -2.4630     0.5430 c6         1 BU6       0.161300
     22 C22         -3.0470    -1.4560     0.5500 c6         1 BU6      -0.091400
     23 F23          0.4020     0.1500     2.0510 f          1 BU6      -0.104900
     24 H1           1.8040    -3.6350     0.1500 ha         1 BU6       0.154000
     25 H2           0.4890    -2.4010     1.8370 ha         1 BU6       0.157000
     26 H5           3.2100     0.0690    -1.4740 ha         1 BU6       0.175000
     27 H11          0.6360     2.3420    -1.6760 hn         1 BU6       0.433800
     28 H13         -1.2210     3.5820     1.4010 h4         1 BU6       0.061100
     29 H16         -1.2600     0.1560    -1.2110 h4         1 BU6       0.178000
     30 H17         -4.2060     0.2260     1.2050 h1         1 BU6       0.088700
     31 H181        -4.9150     1.0030    -1.0110 hc         1 BU6       0.059200
     32 H182        -3.8270    -0.1380    -1.8000 hc         1 BU6       0.059200
     33 H221        -2.3520    -1.7070    -0.2560 hc         1 BU6       0.059200
     34 H222        -2.4970    -1.5080     1.4910 hc         1 BU6       0.059200
     35 H191        -6.2360    -0.8230    -0.0540 h1         1 BU6       0.037200
     36 H192        -6.1050    -1.0460    -1.7960 h1         1 BU6       0.037200
     37 H20         -5.6320    -3.0810    -0.7420 hn         1 BU6       0.363800
     38 H211        -4.8300    -2.2870     1.4220 h1         1 BU6       0.037200
     39 H212        -3.7840    -3.4710     0.6430 h1         1 BU6       0.037200
@<TRIPOS>BOND
     1     1     2 ar  
     2     1     6 ar  
     3     1    24 1   
     4     2     3 ar  
     5     2    25 1   
     6     3     4 ar  
     7     3    23 1   
     8     4     5 ar  
     9     4     8 1   
    10     5     6 ar  
    11     5    26 1   
    12     6     7 1   
    13     8     9 2   
    14     8    10 2   
    15     8    11 1   
    16    11    12 1   
    17    11    27 1   
    18    12    13 1   
    19    12    16 2   
    20    13    14 2   
    21    13    28 1   
    22    14    15 1   
    23    15    16 1   
    24    15    17 1   
    25    16    29 1   
    26    17    18 1   
    27    17    22 1   
    28    17    30 1   
    29    18    19 1   
    30    18    31 1   
    31    18    32 1   
    32    19    20 1   
    33    19    35 1   
    34    19    36 1   
    35    20    21 1   
    36    20    37 1   
    37    21    22 1   
    38    21    38 1   
    39    21    39 1   
    40    22    33 1   
    41    22    34 1   
@<TRIPOS>SUBSTRUCTURE
     1 BU6         1 TEMP              0 ****  ****    0 ROOT
