@<TRIPOS>MOLECULE
BU8
   16    17     1     0     0
SMALL
abcg2


@<TRIPOS>ATOM
      1 C02         -1.8530    -0.0680    -0.0180 cc         1 BU8       0.651700
      2 C04          0.1900     0.7390    -0.0010 ca         1 BU8      -0.136200
      3 C05          1.3750     1.4370     0.0130 ca         1 BU8      -0.069000
      4 C06          2.5300     0.6560     0.0350 ca         1 BU8      -0.170000
      5 C07          2.4310    -0.7320     0.0440 ca         1 BU8       0.329900
      6 C09          0.1830    -0.6730     0.0100 ca         1 BU8       0.507000
      7 N01         -3.1990    -0.0670    -0.0820 nv         1 BU8      -1.018200
      8 N03         -1.1360     1.0910    -0.0200 na         1 BU8      -0.350600
      9 N08          1.2820    -1.4070     0.0320 nb         1 BU8      -0.622000
     10 N10         -1.1000    -1.1450    -0.0000 nd         1 BU8      -0.706700
     11 H1           1.4180     2.5180     0.0070 ha         1 BU8       0.119000
     12 H2           3.5060     1.1210     0.0470 ha         1 BU8       0.122000
     13 H3           3.3360    -1.3300     0.0630 h4         1 BU8       0.020100
     14 H4          -3.6520    -0.9340     0.1540 hn         1 BU8       0.484000
     15 H5          -3.6940     0.7570     0.2190 hn         1 BU8       0.484000
     16 H6          -1.5120     2.0260    -0.0380 hn         1 BU8       0.356000
@<TRIPOS>BOND
     1     1     7 1   
     2     1     8 1   
     3     1    10 2   
     4     2     3 ar  
     5     2     6 ar  
     6     2     8 1   
     7     3     4 ar  
     8     3    11 1   
     9     4     5 ar  
    10     4    12 1   
    11     5     9 ar  
    12     5    13 1   
    13     6     9 ar  
    14     6    10 1   
    15     7    14 1   
    16     7    15 1   
    17     8    16 1   
@<TRIPOS>SUBSTRUCTURE
     1 BU8         1 TEMP              0 ****  ****    0 ROOT
