@<TRIPOS>MOLECULE
BU8
   16    17     1     0     0
SMALL
No Charge or Current Charge


@<TRIPOS>ATOM
      1 C02         -1.8640    -0.0510    -0.0420 cc         1 BU8       0.651700
      2 C04          0.1720     0.6880    -0.0050 ca         1 BU8      -0.136200
      3 C05          1.3560     1.4300     0.0150 ca         1 BU8      -0.069000
      4 C06          2.5400     0.6720     0.0430 ca         1 BU8      -0.170000
      5 C07          2.4590    -0.7410     0.0490 ca         1 BU8       0.329900
      6 C09          0.1600    -0.6910     0.0030 ca         1 BU8       0.507000
      7 N01         -3.1920    -0.0530    -0.0700 nv         1 BU8      -1.018200
      8 N03         -1.1240     1.1020    -0.0330 na         1 BU8      -0.350600
      9 N08          1.2850    -1.4240     0.0300 nb         1 BU8      -0.622000
     10 N10         -1.1480    -1.1630    -0.0210 nd         1 BU8      -0.706700
     11 H1           1.3630     2.5180     0.0090 ha         1 BU8       0.119000
     12 H2           3.5110     1.1600     0.0600 ha         1 BU8       0.122000
     13 H3           3.3660    -1.3440     0.0710 h4         1 BU8       0.020100
     14 H4          -3.6270    -0.9390     0.1600 hn         1 BU8       0.484000
     15 H5          -3.6690     0.7770     0.2610 hn         1 BU8       0.484000
     16 H6          -1.4820     2.0460    -0.0640 hn         1 BU8       0.356000
@<TRIPOS>BOND
     1     1     7 1   
     2     1     8 1   
     3     1    10 2   
     4     2     3 ar  
     5     2     6 ar  
     6     2     8 1   
     7     3     4 ar  
     8     3    11 1   
     9     4     5 ar  
    10     4    12 1   
    11     5     9 ar  
    12     5    13 1   
    13     6     9 ar  
    14     6    10 1   
    15     7    14 1   
    16     7    15 1   
    17     8    16 1   
@<TRIPOS>SUBSTRUCTURE
     1 BU8         1 TEMP              0 ****  ****    0 ROOT
