@<TRIPOS>MOLECULE
BU9
   16    15     1     0     0
SMALL
No Charge or Current Charge


@<TRIPOS>ATOM
      1 C03          1.5160     1.3050    -0.0790 c3         1 BU9      -0.121100
      2 C04          0.7150     0.0360     0.2870 c3         1 BU9       0.174300
      3 O06          1.4730    -1.1040    -0.1490 oh         1 BU9      -0.667000
      4 C05         -0.7250     0.0110    -0.3340 c3         1 BU9       0.174300
      5 C01         -1.5270    -1.2580     0.0320 c3         1 BU9      -0.121100
      6 O6          -1.4830     1.1510     0.1020 oh         1 BU9      -0.667000
      7 H011        -2.5280    -1.2280    -0.4140 hc         1 BU9       0.043033
      8 H012        -1.0230    -2.1580    -0.3410 hc         1 BU9       0.043033
      9 H013        -1.6350    -1.3510     1.1190 hc         1 BU9       0.043033
     10 H05         -0.6200     0.0400    -1.4280 h1         1 BU9       0.038700
     11 H031         1.6240     1.3980    -1.1670 hc         1 BU9       0.043033
     12 H032         1.0130     2.2050     0.2930 hc         1 BU9       0.043033
     13 H033         2.5170     1.2760     0.3670 hc         1 BU9       0.043033
     14 H04          0.6090     0.0070     1.3810 h1         1 BU9       0.038700
     15 H06          2.3300    -1.0770     0.3300 ho         1 BU9       0.445000
     16 H6          -2.3410     1.1240    -0.3770 ho         1 BU9       0.445000
@<TRIPOS>BOND
     1     1     2 1   
     2     1    11 1   
     3     1    12 1   
     4     1    13 1   
     5     2     3 1   
     6     2     4 1   
     7     2    14 1   
     8     3    15 1   
     9     4     5 1   
    10     4     6 1   
    11     4    10 1   
    12     5     7 1   
    13     5     8 1   
    14     5     9 1   
    15     6    16 1   
@<TRIPOS>SUBSTRUCTURE
     1 BU9         1 TEMP              0 ****  ****    0 ROOT
