@<TRIPOS>MOLECULE
BU9
   16    15     1     0     0
SMALL
abcg2


@<TRIPOS>ATOM
      1 C03          1.4610     1.3040    -0.0780 c3         1 BU9      -0.121100
      2 C04          0.6870     0.0490     0.2980 c3         1 BU9       0.174300
      3 O06          1.3670    -1.1170    -0.1230 oh         1 BU9      -0.667000
      4 C05         -0.6980    -0.0010    -0.3460 c3         1 BU9       0.174300
      5 C01         -1.4710    -1.2570     0.0280 c3         1 BU9      -0.121100
      6 O6          -1.3790     1.1640     0.0780 oh         1 BU9      -0.667000
      7 H011        -2.4770    -1.2270    -0.3970 hc         1 BU9       0.043033
      8 H012        -0.9860    -2.1550    -0.3510 hc         1 BU9       0.043033
      9 H013        -1.5670    -1.3520     1.1120 hc         1 BU9       0.043033
     10 H05         -0.5580     0.0130    -1.4390 h1         1 BU9       0.038700
     11 H031         1.5640     1.3940    -1.1610 hc         1 BU9       0.043033
     12 H032         0.9740     2.2030     0.2950 hc         1 BU9       0.043033
     13 H033         2.4650     1.2770     0.3540 hc         1 BU9       0.043033
     14 H04          0.5460     0.0380     1.3910 h1         1 BU9       0.038700
     15 H06          2.2380    -1.1160     0.2860 ho         1 BU9       0.445000
     16 H6          -2.2520     1.1610    -0.3250 ho         1 BU9       0.445000
@<TRIPOS>BOND
     1     1     2 1   
     2     1    11 1   
     3     1    12 1   
     4     1    13 1   
     5     2     3 1   
     6     2     4 1   
     7     2    14 1   
     8     3    15 1   
     9     4     5 1   
    10     4     6 1   
    11     4    10 1   
    12     5     7 1   
    13     5     8 1   
    14     5     9 1   
    15     6    16 1   
@<TRIPOS>SUBSTRUCTURE
     1 BU9         1 TEMP              0 ****  ****    0 ROOT
