@<TRIPOS>MOLECULE
BUA
   13    12     1     0     0
SMALL
No Charge or Current Charge


@<TRIPOS>ATOM
      1 C1          -0.2560    -0.0150     2.8090 c3         1 BUA      -0.088100
      2 C2           0.3260    -0.1780     1.3910 c3         1 BUA      -0.057400
      3 C3          -0.6460     0.2800     0.2770 c3         1 BUA      -0.204400
      4 C4           0.0020     0.0890    -1.1070 c          1 BUA       0.716000
      5 O1           0.6730     1.0020    -1.5620 o          1 BUA      -0.745500
      6 O2          -0.1430    -0.9870    -1.6680 o          1 BUA      -0.745500
      7 H11         -1.1700    -0.6090     2.9240 hc         1 BUA       0.008367
      8 H12          0.4690    -0.3530     3.5600 hc         1 BUA       0.008367
      9 H13         -0.4960     1.0350     3.0120 hc         1 BUA       0.008367
     10 H21          1.2580     0.3970     1.3210 hc         1 BUA       0.036700
     11 H22          0.5900    -1.2320     1.2340 hc         1 BUA       0.036700
     12 H31         -1.5360    -0.3540     0.3760 hc         1 BUA       0.013700
     13 H32         -0.8390     1.3440     0.4660 hc         1 BUA       0.013700
@<TRIPOS>BOND
     1     1     2 1   
     2     1     7 1   
     3     1     8 1   
     4     1     9 1   
     5     2     3 1   
     6     2    10 1   
     7     2    11 1   
     8     3     4 1   
     9     3    12 1   
    10     3    13 1   
    11     4     5 1   
    12     4     6 1   
@<TRIPOS>SUBSTRUCTURE
     1 BUA         1 TEMP              0 ****  ****    0 ROOT
