@<TRIPOS>MOLECULE
BUA
   13    12     1     0     0
SMALL
bcc


@<TRIPOS>ATOM
      1 C1          -0.2550     0.0500     2.8000 c3         1 BUA      -0.088100
      2 C2           0.4160     0.0260     1.4320 c3         1 BUA      -0.057400
      3 C3          -0.5950     0.0340     0.2960 c3         1 BUA      -0.204400
      4 C4          -0.0190     0.0100    -1.1300 c          1 BUA       0.926600
      5 O1           1.2210     0.0020    -1.2610 o          1 BUA      -0.850800
      6 O2          -0.8580     0.0030    -2.0570 o          1 BUA      -0.850800
      7 H11         -0.9080    -0.8150     2.9360 hc         1 BUA       0.008367
      8 H12          0.4760     0.0410     3.6110 hc         1 BUA       0.008367
      9 H13         -0.8700     0.9440     2.9230 hc         1 BUA       0.008367
     10 H21          1.0830     0.8870     1.3380 hc         1 BUA       0.036700
     11 H22          1.0540    -0.8570     1.3530 hc         1 BUA       0.036700
     12 H31         -1.2740    -0.8210     0.4050 hc         1 BUA       0.013700
     13 H32         -1.2410     0.9150     0.3880 hc         1 BUA       0.013700
@<TRIPOS>BOND
     1     1     2 1   
     2     1     7 1   
     3     1     8 1   
     4     1     9 1   
     5     2     3 1   
     6     2    10 1   
     7     2    11 1   
     8     3     4 1   
     9     3    12 1   
    10     3    13 1   
    11     4     5 1   
    12     4     6 1   
@<TRIPOS>SUBSTRUCTURE
     1 BUA         1 TEMP              0 ****  ****    0 ROOT
