@<TRIPOS>MOLECULE
BUC
   26    25     1     0     0
SMALL
No Charge or Current Charge


@<TRIPOS>ATOM
      1 N           12.3580    20.9560    16.6480 n8         1 BUC      -0.877800
      2 CA          13.7520    20.8270    16.0730 c3         1 BUC       0.016500
      3 CB          13.8080    21.3780    14.6230 c3         1 BUC       0.010700
      4 SG          13.6540    23.2230    14.5310 ss         1 BUC      -0.163100
      5 SD          11.6080    23.6050    14.7810 ss         1 BUC      -0.251100
      6 C1          10.9220    23.5350    13.0640 c3         1 BUC       0.003700
      7 C2          11.4770    24.6610    12.1620 c3         1 BUC      -0.070400
      8 C3          11.0730    26.0840    12.6120 c3         1 BUC      -0.076400
      9 C4          11.5910    27.1840    11.6640 c3         1 BUC      -0.086100
     10 C           14.9770    21.3810    16.9230 c          1 BUC       0.937600
     11 O           14.7790    22.2300    17.7890 o          1 BUC      -0.825800
     12 OXT         16.0750    20.8550    16.7660 o          1 BUC      -0.825800
     13 H           12.1420    21.9560    16.7260 hn         1 BUC       0.330300
     14 H2          11.6760    20.6090    15.9670 hn         1 BUC       0.330300
     15 HA          13.9340    19.7470    15.9940 h1         1 BUC       0.049700
     16 HB2         14.7750    21.1020    14.1830 h1         1 BUC       0.060700
     17 HB3         13.0220    20.9210    14.0090 h1         1 BUC       0.060700
     18 H11         11.1740    22.5590    12.6290 h1         1 BUC       0.058700
     19 H12          9.8290    23.6120    13.1170 h1         1 BUC       0.058700
     20 H21         12.5700    24.5870    12.1140 hc         1 BUC       0.043700
     21 H22         11.1090    24.4950    11.1420 hc         1 BUC       0.043700
     22 H31          9.9800    26.1500    12.6710 hc         1 BUC       0.046200
     23 H32         11.4600    26.2790    13.6190 hc         1 BUC       0.046200
     24 H41         11.2820    28.1730    12.0220 hc         1 BUC       0.026033
     25 H42         12.6860    27.1650    11.6110 hc         1 BUC       0.026033
     26 H43         11.1920    27.0440    10.6530 hc         1 BUC       0.026033
@<TRIPOS>BOND
     1     1     2 1   
     2     1    13 1   
     3     1    14 1   
     4     2     3 1   
     5     2    10 1   
     6     2    15 1   
     7     3     4 1   
     8     3    16 1   
     9     3    17 1   
    10     4     5 1   
    11     5     6 1   
    12     6     7 1   
    13     6    18 1   
    14     6    19 1   
    15     7     8 1   
    16     7    20 1   
    17     7    21 1   
    18     8     9 1   
    19     8    22 1   
    20     8    23 1   
    21     9    24 1   
    22     9    25 1   
    23     9    26 1   
    24    10    11 1   
    25    10    12 1   
@<TRIPOS>SUBSTRUCTURE
     1 BUC         1 TEMP              0 ****  ****    0 ROOT
