@<TRIPOS>MOLECULE
BUC
   26    25     1     0     0
SMALL
bcc


@<TRIPOS>ATOM
      1 N           12.4990    20.9840    16.8530 n8         1 BUC      -0.877800
      2 CA          13.7100    20.8160    16.0770 c3         1 BUC       0.016500
      3 CB          13.6500    21.3820    14.6560 c3         1 BUC       0.010700
      4 SG          13.4620    23.1970    14.6020 ss         1 BUC      -0.163100
      5 SD          11.4300    23.4830    14.6770 ss         1 BUC      -0.251100
      6 C1          10.9720    23.5020    12.9110 c3         1 BUC       0.003700
      7 C2          11.5470    24.6640    12.1220 c3         1 BUC      -0.070400
      8 C3          11.0560    26.0320    12.5740 c3         1 BUC      -0.076400
      9 C4          11.6400    27.1630    11.7390 c3         1 BUC      -0.086100
     10 C           14.9530    21.3970    16.8050 c          1 BUC       0.937600
     11 O           14.7590    22.0470    17.8480 o          1 BUC      -0.825800
     12 OXT         16.0450    21.1650    16.2510 o          1 BUC      -0.825800
     13 H           12.4730    21.9240    17.2250 hn         1 BUC       0.330300
     14 H2          11.6820    20.8760    16.2650 hn         1 BUC       0.330300
     15 HA          13.8920    19.7400    15.9480 h1         1 BUC       0.049700
     16 HB2         14.5820    21.1720    14.1290 h1         1 BUC       0.060700
     17 HB3         12.8380    20.9440    14.0740 h1         1 BUC       0.060700
     18 H11         11.2590    22.5440    12.4750 h1         1 BUC       0.058700
     19 H12          9.8790    23.5390    12.9210 h1         1 BUC       0.058700
     20 H21         12.6400    24.6230    12.1660 hc         1 BUC       0.043700
     21 H22         11.2820    24.5120    11.0700 hc         1 BUC       0.043700
     22 H31          9.9640    26.0590    12.5190 hc         1 BUC       0.046200
     23 H32         11.3130    26.1830    13.6250 hc         1 BUC       0.046200
     24 H41         11.2710    28.1340    12.0710 hc         1 BUC       0.026033
     25 H42         12.7290    27.1820    11.8070 hc         1 BUC       0.026033
     26 H43         11.3790    27.0530    10.6850 hc         1 BUC       0.026033
@<TRIPOS>BOND
     1     1     2 1   
     2     1    13 1   
     3     1    14 1   
     4     2     3 1   
     5     2    10 1   
     6     2    15 1   
     7     3     4 1   
     8     3    16 1   
     9     3    17 1   
    10     4     5 1   
    11     5     6 1   
    12     6     7 1   
    13     6    18 1   
    14     6    19 1   
    15     7     8 1   
    16     7    20 1   
    17     7    21 1   
    18     8     9 1   
    19     8    22 1   
    20     8    23 1   
    21     9    24 1   
    22     9    25 1   
    23     9    26 1   
    24    10    11 1   
    25    10    12 1   
@<TRIPOS>SUBSTRUCTURE
     1 BUC         1 TEMP              0 ****  ****    0 ROOT
