@<TRIPOS>MOLECULE
BUD
   16    15     1     0     0
SMALL
bcc


@<TRIPOS>ATOM
      1 C1          -1.7780     0.7490    -0.3520 c3         1 BUD      -0.124100
      2 O1          -0.8190    -1.1650     0.7950 oh         1 BUD      -0.584800
      3 C2          -0.6970    -0.3220    -0.3330 c3         1 BUD       0.157600
      4 O2           0.8550     1.1030     0.7840 oh         1 BUD      -0.584800
      5 C3           0.7100     0.2660    -0.3460 c3         1 BUD       0.157600
      6 C4           1.7900    -0.8050    -0.3910 c3         1 BUD      -0.124100
      7 H1          -1.6710     1.3910    -1.2270 hc         1 BUD       0.043367
      8 H1A         -2.7690     0.2930    -0.4030 hc         1 BUD       0.043367
      9 H1B         -1.7370     1.3760     0.5390 hc         1 BUD       0.043367
     10 HO1         -1.6930    -1.5660     0.7740 ho         1 BUD       0.399000
     11 H2          -0.7830    -0.9070    -1.2610 h1         1 BUD       0.022700
     12 HO2          1.7280     1.5030     0.7470 ho         1 BUD       0.399000
     13 H3           0.7770     0.8560    -1.2730 h1         1 BUD       0.022700
     14 H4           1.6700    -1.4430    -1.2680 hc         1 BUD       0.043367
     15 H4A          2.7800    -0.3490    -0.4570 hc         1 BUD       0.043367
     16 H4B          1.7660    -1.4370     0.4970 hc         1 BUD       0.043367
@<TRIPOS>BOND
     1     1     3 1   
     2     1     7 1   
     3     1     8 1   
     4     1     9 1   
     5     2     3 1   
     6     2    10 1   
     7     3     5 1   
     8     3    11 1   
     9     4     5 1   
    10     4    12 1   
    11     5     6 1   
    12     5    13 1   
    13     6    14 1   
    14     6    15 1   
    15     6    16 1   
@<TRIPOS>SUBSTRUCTURE
     1 BUD         1 TEMP              0 ****  ****    0 ROOT
