@<TRIPOS>MOLECULE
BUD
   16    15     1     0     0
SMALL
No Charge or Current Charge


@<TRIPOS>ATOM
      1 C1          -1.8310     0.7300    -0.3580 c3         1 BUD      -0.124100
      2 O1          -0.9250    -1.1860     0.8180 oh         1 BUD      -0.647000
      3 C2          -0.7160    -0.3360    -0.3240 c3         1 BUD       0.180800
      4 O2           0.9610     1.1240     0.8050 oh         1 BUD      -0.647000
      5 C3           0.7290     0.2800    -0.3370 c3         1 BUD       0.180800
      6 C4           1.8440    -0.7860    -0.3980 c3         1 BUD      -0.124100
      7 H1          -1.7040     1.3880    -1.2260 hc         1 BUD       0.043367
      8 H1A         -2.8180     0.2580    -0.4350 hc         1 BUD       0.043367
      9 H1B         -1.8150     1.3490     0.5470 hc         1 BUD       0.043367
     10 HO1         -1.8410    -1.5330     0.7510 ho         1 BUD       0.438000
     11 H2          -0.8170    -0.9370    -1.2380 h1         1 BUD       0.022700
     12 HO2          1.8750     1.4710     0.7220 ho         1 BUD       0.438000
     13 H3           0.8130     0.8860    -1.2500 h1         1 BUD       0.022700
     14 H4           1.7000    -1.4400    -1.2660 hc         1 BUD       0.043367
     15 H4A          2.8290    -0.3140    -0.4910 hc         1 BUD       0.043367
     16 H4B          1.8450    -1.4100     0.5040 hc         1 BUD       0.043367
@<TRIPOS>BOND
     1     1     3 1   
     2     1     7 1   
     3     1     8 1   
     4     1     9 1   
     5     2     3 1   
     6     2    10 1   
     7     3     5 1   
     8     3    11 1   
     9     4     5 1   
    10     4    12 1   
    11     5     6 1   
    12     5    13 1   
    13     6    14 1   
    14     6    15 1   
    15     6    16 1   
@<TRIPOS>SUBSTRUCTURE
     1 BUD         1 TEMP              0 ****  ****    0 ROOT
