@<TRIPOS>MOLECULE
BUF
   62    66     1     0     0
SMALL
bcc


@<TRIPOS>ATOM
      1 C18          1.6850    -0.8690    -1.4480 c3         1 BUF      -0.069100
      2 C13          1.1340    -0.6840    -0.0370 c5         1 BUF      -0.027000
      3 C12          0.1680    -1.8350     0.2870 c6         1 BUF      -0.073400
      4 C11         -1.1510    -1.7680    -0.4640 c6         1 BUF      -0.072400
      5 C9          -1.8860    -0.4560    -0.2030 c6         1 BUF      -0.040700
      6 C10         -3.2550    -0.3700    -0.9320 c6         1 BUF      -0.030000
      7 C19         -3.0870    -0.5120    -2.4510 c3         1 BUF      -0.086100
      8 C1          -4.2120    -1.4930    -0.4890 c6         1 BUF      -0.066400
      9 C2          -4.6670    -1.4020     0.9600 c6         1 BUF      -0.109400
     10 C3          -5.3300    -0.0610     1.2570 c6         1 BUF       0.149100
     11 O3          -6.5530     0.0890     0.5560 oh         1 BUF      -0.598800
     12 C4          -4.4110     1.0750     0.8410 c6         1 BUF      -0.065400
     13 C5          -3.9340     0.9830    -0.6130 c6         1 BUF      -0.048700
     14 C6          -3.0230     2.1590    -0.9580 c6         1 BUF      -0.070400
     15 C7          -1.6720     2.0690    -0.2610 c6         1 BUF      -0.073400
     16 C8          -0.9710     0.7360    -0.5380 c6         1 BUF      -0.072700
     17 C14          0.3990     0.6590     0.1660 c5         1 BUF       0.166800
     18 O14          1.2620     1.6610    -0.3590 oh         1 BUF      -0.602800
     19 C15          0.3580     0.7960     1.6900 c5         1 BUF      -0.111400
     20 C16          1.7360     0.3160     2.1500 c5         1 BUF      -0.070400
     21 C17          2.2360    -0.6840     1.0780 c5         1 BUF       0.008500
     22 C20          3.6450    -0.4490     0.6000 cc         1 BUF      -0.202200
     23 C22          4.4950    -1.5600     0.3060 cc         1 BUF      -0.026000
     24 C23          5.7610    -1.3980    -0.1420 cd         1 BUF      -0.295200
     25 C24          6.2980    -0.0800    -0.3350 c          1 BUF       0.734800
     26 O24          7.4060     0.2150    -0.7230 o          1 BUF      -0.571500
     27 O21          5.4460     0.9430    -0.0410 os         1 BUF      -0.331200
     28 C21          4.1890     0.7650     0.3970 cd         1 BUF       0.122100
     29 H1           2.1700    -1.8440    -1.5410 hc         1 BUF       0.038700
     30 H2           0.8920    -0.8350    -2.1960 hc         1 BUF       0.038700
     31 H3           2.4180    -0.1110    -1.7150 hc         1 BUF       0.038700
     32 H4           0.6730    -2.7800     0.0650 hc         1 BUF       0.039200
     33 H5          -0.0360    -1.8580     1.3630 hc         1 BUF       0.039200
     34 H6          -0.9760    -1.8970    -1.5360 hc         1 BUF       0.043700
     35 H7          -1.7650    -2.6160    -0.1520 hc         1 BUF       0.043700
     36 H8          -2.0890    -0.4130     0.8740 hc         1 BUF       0.043700
     37 H9          -2.8300    -1.5350    -2.7300 hc         1 BUF       0.034700
     38 H10         -4.0260    -0.2690    -2.9520 hc         1 BUF       0.034700
     39 H11         -2.3190     0.1390    -2.8670 hc         1 BUF       0.034700
     40 H12         -5.0960    -1.4460    -1.1350 hc         1 BUF       0.043700
     41 H13         -3.7680    -2.4730    -0.6820 hc         1 BUF       0.043700
     42 H14         -5.3610    -2.2190     1.1850 hc         1 BUF       0.041200
     43 H15         -3.8240    -1.5350     1.6460 hc         1 BUF       0.041200
     44 H16         -5.5100     0.0130     2.3390 h1         1 BUF       0.027700
     45 H17         -7.1160    -0.6610     0.7720 ho         1 BUF       0.400000
     46 H18         -4.9180     2.0340     0.9950 hc         1 BUF       0.046200
     47 H19         -3.5620     1.0730     1.5290 hc         1 BUF       0.046200
     48 H20         -4.8220     1.0470    -1.2530 hc         1 BUF       0.063700
     49 H21         -2.8730     2.2080    -2.0400 hc         1 BUF       0.042200
     50 H22         -3.5150     3.0970    -0.6810 hc         1 BUF       0.042200
     51 H23         -1.0530     2.9060    -0.5970 hc         1 BUF       0.035200
     52 H24         -1.8040     2.2000     0.8180 hc         1 BUF       0.035200
     53 H25         -0.7570     0.6990    -1.6140 hc         1 BUF       0.064700
     54 H26          0.9890     2.5140    -0.0060 ho         1 BUF       0.400000
     55 H27          0.1540     1.8210     2.0120 hc         1 BUF       0.050200
     56 H28         -0.4390     0.1810     2.1120 hc         1 BUF       0.050200
     57 H29          2.4170     1.1620     2.2440 hc         1 BUF       0.045200
     58 H30          1.6970    -0.1510     3.1350 hc         1 BUF       0.045200
     59 H31          2.2480    -1.6890     1.5120 hc         1 BUF       0.049700
     60 H32          4.1090    -2.5620     0.4530 ha         1 BUF       0.136000
     61 H33          6.4010    -2.2400    -0.3600 ha         1 BUF       0.163000
     62 H34          3.6800     1.7060     0.5460 h4         1 BUF       0.186000
@<TRIPOS>BOND
     1     1     2 1   
     2     1    29 1   
     3     1    30 1   
     4     1    31 1   
     5     2     3 1   
     6     2    17 1   
     7     2    21 1   
     8     3     4 1   
     9     3    32 1   
    10     3    33 1   
    11     4     5 1   
    12     4    34 1   
    13     4    35 1   
    14     5     6 1   
    15     5    16 1   
    16     5    36 1   
    17     6     7 1   
    18     6     8 1   
    19     6    13 1   
    20     7    37 1   
    21     7    38 1   
    22     7    39 1   
    23     8     9 1   
    24     8    40 1   
    25     8    41 1   
    26     9    10 1   
    27     9    42 1   
    28     9    43 1   
    29    10    11 1   
    30    10    12 1   
    31    10    44 1   
    32    11    45 1   
    33    12    13 1   
    34    12    46 1   
    35    12    47 1   
    36    13    14 1   
    37    13    48 1   
    38    14    15 1   
    39    14    49 1   
    40    14    50 1   
    41    15    16 1   
    42    15    51 1   
    43    15    52 1   
    44    16    17 1   
    45    16    53 1   
    46    17    18 1   
    47    17    19 1   
    48    18    54 1   
    49    19    20 1   
    50    19    55 1   
    51    19    56 1   
    52    20    21 1   
    53    20    57 1   
    54    20    58 1   
    55    21    22 1   
    56    21    59 1   
    57    22    23 1   
    58    22    28 2   
    59    23    24 2   
    60    23    60 1   
    61    24    25 1   
    62    24    61 1   
    63    25    26 2   
    64    25    27 1   
    65    27    28 1   
    66    28    62 1   
@<TRIPOS>SUBSTRUCTURE
     1 BUF         1 TEMP              0 ****  ****    0 ROOT
