@<TRIPOS>MOLECULE
BUF
   62    66     1     0     0
SMALL
No Charge or Current Charge


@<TRIPOS>ATOM
      1 C18          1.7380    -0.8900    -1.4610 c3         1 BUF      -0.069100
      2 C13          1.1790    -0.6930    -0.0110 c5         1 BUF      -0.027000
      3 C12          0.2020    -1.8900     0.2670 c6         1 BUF      -0.073400
      4 C11         -1.1260    -1.7930    -0.5170 c6         1 BUF      -0.072400
      5 C9          -1.8850    -0.4620    -0.2240 c6         1 BUF      -0.040700
      6 C10         -3.2930    -0.3810    -0.9660 c6         1 BUF      -0.030000
      7 C19         -3.1280    -0.4780    -2.5240 c3         1 BUF      -0.086100
      8 C1          -4.2830    -1.5270    -0.5500 c6         1 BUF      -0.066400
      9 C2          -4.7380    -1.4600     0.9300 c6         1 BUF      -0.109400
     10 C3          -5.4000    -0.1010     1.2640 c6         1 BUF       0.172300
     11 O3          -6.6600     0.0230     0.5950 oh         1 BUF      -0.661000
     12 C4          -4.4630     1.0720     0.8840 c6         1 BUF      -0.065400
     13 C5          -3.9710     1.0190    -0.6030 c6         1 BUF      -0.048700
     14 C6          -3.0580     2.2660    -0.9130 c6         1 BUF      -0.070400
     15 C7          -1.6830     2.1380    -0.2160 c6         1 BUF      -0.073400
     16 C8          -0.9570     0.7820    -0.5320 c6         1 BUF      -0.072700
     17 C14          0.4460     0.6980     0.1900 c5         1 BUF       0.190000
     18 O14          1.2360     1.7810    -0.3150 oh         1 BUF      -0.665000
     19 C15          0.3990     0.7750     1.7490 c5         1 BUF      -0.111400
     20 C16          1.8550     0.4170     2.1540 c5         1 BUF      -0.070400
     21 C17          2.3090    -0.6690     1.1120 c5         1 BUF       0.008500
     22 C20          3.7320    -0.4340     0.5900 cc         1 BUF      -0.202200
     23 C22          4.5160    -1.6210     0.4810 cc         1 BUF      -0.076000
     24 C23          5.7900    -1.4770     0.0100 cd         1 BUF      -0.345200
     25 C24          6.3440    -0.1700    -0.3670 c          1 BUF       0.659300
     26 O24          7.4890    -0.0740    -0.7830 o          1 BUF      -0.496000
     27 O21          5.5460     0.9500    -0.2420 os         1 BUF      -0.331200
     28 C21          4.2520     0.7980     0.2250 cd         1 BUF       0.072100
     29 H1           2.2530    -1.8520    -1.5620 hc         1 BUF       0.038700
     30 H2           0.9480    -0.8580    -2.2190 hc         1 BUF       0.038700
     31 H3           2.4540    -0.1090    -1.7380 hc         1 BUF       0.038700
     32 H4           0.6980    -2.8390     0.0210 hc         1 BUF       0.039200
     33 H5          -0.0320    -1.9640     1.3380 hc         1 BUF       0.039200
     34 H6          -0.9340    -1.9070    -1.5900 hc         1 BUF       0.043700
     35 H7          -1.7410    -2.6530    -0.2280 hc         1 BUF       0.043700
     36 H8          -2.0790    -0.4540     0.8540 hc         1 BUF       0.043700
     37 H9          -2.7780    -1.4680    -2.8380 hc         1 BUF       0.034700
     38 H10         -4.0870    -0.3130    -3.0320 hc         1 BUF       0.034700
     39 H11         -2.4300     0.2600    -2.9320 hc         1 BUF       0.034700
     40 H12         -5.1790    -1.4740    -1.1850 hc         1 BUF       0.043700
     41 H13         -3.8570    -2.5160    -0.7600 hc         1 BUF       0.043700
     42 H14         -5.4400    -2.2780     1.1380 hc         1 BUF       0.041200
     43 H15         -3.8820    -1.6290     1.5970 hc         1 BUF       0.041200
     44 H16         -5.5690    -0.0630     2.3510 h1         1 BUF       0.027700
     45 H17         -7.2000    -0.7480     0.8720 ho         1 BUF       0.439000
     46 H18         -4.9860     2.0210     1.0670 hc         1 BUF       0.046200
     47 H19         -3.6140     1.0700     1.5780 hc         1 BUF       0.046200
     48 H20         -4.8680     1.1250    -1.2300 hc         1 BUF       0.063700
     49 H21         -2.9110     2.3620    -1.9970 hc         1 BUF       0.042200
     50 H22         -3.5550     3.1920    -0.5940 hc         1 BUF       0.042200
     51 H23         -1.0660     2.9880    -0.5330 hc         1 BUF       0.035200
     52 H24         -1.8150     2.2550     0.8670 hc         1 BUF       0.035200
     53 H25         -0.7450     0.7770    -1.6080 hc         1 BUF       0.064700
     54 H26          0.7000     2.5900    -0.1920 ho         1 BUF       0.439000
     55 H27          0.1220     1.7700     2.1130 hc         1 BUF       0.050200
     56 H28         -0.3190     0.0790     2.1950 hc         1 BUF       0.050200
     57 H29          2.4860     1.3120     2.1350 hc         1 BUF       0.045200
     58 H30          1.9050     0.0390     3.1810 hc         1 BUF       0.045200
     59 H31          2.2960    -1.6300     1.6400 hc         1 BUF       0.049700
     60 H32          4.1160    -2.5970     0.7530 ha         1 BUF       0.186000
     61 H33          6.4650    -2.3150    -0.1120 ha         1 BUF       0.213000
     62 H34          3.7090     1.7380     0.2610 h4         1 BUF       0.236000
@<TRIPOS>BOND
     1     1     2 1   
     2     1    29 1   
     3     1    30 1   
     4     1    31 1   
     5     2     3 1   
     6     2    17 1   
     7     2    21 1   
     8     3     4 1   
     9     3    32 1   
    10     3    33 1   
    11     4     5 1   
    12     4    34 1   
    13     4    35 1   
    14     5     6 1   
    15     5    16 1   
    16     5    36 1   
    17     6     7 1   
    18     6     8 1   
    19     6    13 1   
    20     7    37 1   
    21     7    38 1   
    22     7    39 1   
    23     8     9 1   
    24     8    40 1   
    25     8    41 1   
    26     9    10 1   
    27     9    42 1   
    28     9    43 1   
    29    10    11 1   
    30    10    12 1   
    31    10    44 1   
    32    11    45 1   
    33    12    13 1   
    34    12    46 1   
    35    12    47 1   
    36    13    14 1   
    37    13    48 1   
    38    14    15 1   
    39    14    49 1   
    40    14    50 1   
    41    15    16 1   
    42    15    51 1   
    43    15    52 1   
    44    16    17 1   
    45    16    53 1   
    46    17    18 1   
    47    17    19 1   
    48    18    54 1   
    49    19    20 1   
    50    19    55 1   
    51    19    56 1   
    52    20    21 1   
    53    20    57 1   
    54    20    58 1   
    55    21    22 1   
    56    21    59 1   
    57    22    23 1   
    58    22    28 2   
    59    23    24 2   
    60    23    60 1   
    61    24    25 1   
    62    24    61 1   
    63    25    26 2   
    64    25    27 1   
    65    27    28 1   
    66    28    62 1   
@<TRIPOS>SUBSTRUCTURE
     1 BUF         1 TEMP              0 ****  ****    0 ROOT
