@<TRIPOS>MOLECULE
BUH
   49    51     1     0     0
SMALL
abcg2


@<TRIPOS>ATOM
      1 C1          -0.3250    -2.1120    -0.0290 ca         1 BUH       0.481900
      2 C2          -0.2080    -3.4640    -0.3520 ca         1 BUH      -0.182000
      3 C3           1.0590    -4.0090    -0.3850 ca         1 BUH      -0.098000
      4 C11          4.5800     1.3780    -0.4040 c6         1 BUH       0.029700
      5 C13          2.5640     0.5360     0.5110 c6         1 BUH       0.144600
      6 C14          3.6300    -1.2550     1.9190 c3         1 BUH      -0.087100
      7 C15          4.1420     2.3100    -1.5360 c3         1 BUH      -0.118100
      8 C17         -5.4630    -1.1550    -0.3310 ca         1 BUH       0.397900
      9 C18         -6.1940    -0.0010    -0.0870 ca         1 BUH      -0.233300
     10 C19         -5.5150     1.1350     0.3130 ca         1 BUH      -0.033000
     11 C20         -4.1360     1.0900     0.4550 ca         1 BUH       0.102000
     12 C21         -3.4740    -0.1090     0.1880 ca         1 BUH       0.326500
     13 C4           2.1410    -3.1960    -0.1060 ca         1 BUH       0.125000
     14 C5           1.9500    -1.8540     0.1940 ca         1 BUH       0.372300
     15 N6           0.7220    -1.3540     0.2290 nb         1 BUH      -0.695000
     16 F7           3.3640    -3.7390    -0.1080 f          1 BUH      -0.151000
     17 C8           3.0850    -0.8990     0.5290 c6         1 BUH       0.094900
     18 N9           4.1160    -1.0600    -0.4760 n2         1 BUH      -0.673900
     19 C10          4.7710    -0.0590    -0.9010 c2         1 BUH       0.616200
     20 O12          3.6610     1.4160     0.6530 os         1 BUH      -0.436000
     21 N16          5.7450    -0.2370    -1.8360 nv         1 BUH      -1.024200
     22 N22         -4.1540    -1.1840    -0.1920 nb         1 BUH      -0.692000
     23 N24         -1.6000    -1.5600     0.0090 ns         1 BUH      -0.313900
     24 CL          -3.3600     2.5360     0.9590 cl         1 BUH      -0.119000
     25 F28         -8.1860    -1.1200    -0.6360 f          1 BUH      -0.105333
     26 F29         -8.2800     0.3800     0.9060 f          1 BUH      -0.105333
     27 F30         -8.0430     0.9660    -1.1480 f          1 BUH      -0.105333
     28 H1          -1.0770    -4.0720    -0.5640 ha         1 BUH       0.129000
     29 H2           1.2080    -5.0560    -0.6180 ha         1 BUH       0.138000
     30 H3           2.0170     0.7360    -0.4160 h1         1 BUH       0.083200
     31 H4           1.8900     0.7440     1.3390 h1         1 BUH       0.083200
     32 H5           2.8320    -1.2310     2.6620 hc         1 BUH       0.052700
     33 H6           4.0700    -2.2510     1.9240 hc         1 BUH       0.052700
     34 H7           4.4010    -0.5490     2.2240 hc         1 BUH       0.052700
     35 H8           3.2080     1.9510    -1.9680 hc         1 BUH       0.059033
     36 H9           3.9700     3.3160    -1.1560 hc         1 BUH       0.059033
     37 H10          4.8660     2.3770    -2.3460 hc         1 BUH       0.059033
     38 H11         -5.9330    -2.0780    -0.6450 h4         1 BUH       0.046100
     39 H12         -6.0390     2.0600     0.5190 ha         1 BUH       0.154000
     40 H13          5.9960     0.5210    -2.4480 hn         1 BUH       0.476500
     41 H14          5.7450    -1.1380    -2.2900 hn         1 BUH       0.476500
     42 H15         -2.3670    -2.1800    -0.2230 hn         1 BUH       0.188000
     43 C31          5.8800     1.8800     0.2440 c3         1 BUH       0.317000
     44 C23         -1.9740    -0.2880     0.2970 c          1 BUH       0.520600
     45 F32          5.6740     3.0190     0.9080 f          1 BUH      -0.106667
     46 F33          6.3700     0.9940     1.1180 f          1 BUH      -0.106667
     47 F34          6.8400     2.1230    -0.6540 f          1 BUH      -0.106667
     48 C26         -7.6830     0.0500    -0.2440 c3         1 BUH       0.368300
     49 O25         -1.2400     0.6220     0.6040 o          1 BUH      -0.513100
@<TRIPOS>BOND
     1     1     2 ar  
     2     1    15 ar  
     3     1    23 1   
     4     2     3 ar  
     5     2    28 1   
     6     3    13 ar  
     7     3    29 1   
     8     4     7 1   
     9     4    19 1   
    10     4    20 1   
    11     4    43 1   
    12     5    17 1   
    13     5    20 1   
    14     5    30 1   
    15     5    31 1   
    16     6    17 1   
    17     6    32 1   
    18     6    33 1   
    19     6    34 1   
    20     7    35 1   
    21     7    36 1   
    22     7    37 1   
    23     8     9 ar  
    24     8    22 ar  
    25     8    38 1   
    26     9    10 ar  
    27     9    48 1   
    28    10    11 ar  
    29    10    39 1   
    30    11    12 ar  
    31    11    24 1   
    32    12    22 ar  
    33    12    44 1   
    34    13    14 ar  
    35    13    16 1   
    36    14    15 ar  
    37    14    17 1   
    38    17    18 1   
    39    18    19 2   
    40    19    21 1   
    41    21    40 1   
    42    21    41 1   
    43    23    42 1   
    44    23    44 1   
    45    25    48 1   
    46    26    48 1   
    47    27    48 1   
    48    43    45 1   
    49    43    46 1   
    50    43    47 1   
    51    44    49 2   
@<TRIPOS>SUBSTRUCTURE
     1 BUH         1 TEMP              0 ****  ****    0 ROOT
