@<TRIPOS>MOLECULE
BUH
   49    51     1     0     0
SMALL
No Charge or Current Charge


@<TRIPOS>ATOM
      1 C1          -0.3280    -2.2950     0.1980 ca         1 BUH       0.481900
      2 C2          -0.1650    -3.6710    -0.0200 ca         1 BUH      -0.182000
      3 C3           1.1320    -4.2100    -0.0460 ca         1 BUH      -0.098000
      4 C11          4.6080     1.4310    -0.5150 c6         1 BUH       0.029700
      5 C13          2.5930     0.5610     0.5580 c6         1 BUH       0.144600
      6 C14          3.8350    -1.2140     1.8900 c3         1 BUH      -0.087100
      7 C15          3.9550     2.2690    -1.6660 c3         1 BUH      -0.118100
      8 C17         -5.4920    -0.9080    -0.7530 ca         1 BUH       0.397900
      9 C18         -6.2190     0.2030    -0.3030 ca         1 BUH      -0.233300
     10 C19         -5.5830     1.1130     0.5650 ca         1 BUH      -0.033000
     11 C20         -4.2470     0.8910     0.9430 ca         1 BUH       0.102000
     12 C21         -3.5680    -0.2590     0.4400 ca         1 BUH       0.326500
     13 C4           2.2200    -3.3390     0.1300 ca         1 BUH       0.125000
     14 C5           1.9760    -1.9470     0.3150 ca         1 BUH       0.372300
     15 N6           0.7070    -1.4450     0.3390 nb         1 BUH      -0.695000
     16 F7           3.4720    -3.8560     0.1150 f          1 BUH      -0.151000
     17 C8           3.1400    -0.9130     0.5240 c6         1 BUH       0.094900
     18 N9           4.1960    -1.0620    -0.5300 n2         1 BUH      -0.673900
     19 C10          4.8410    -0.0460    -0.9660 c2         1 BUH       0.616200
     20 O12          3.6900     1.5010     0.6190 os         1 BUH      -0.436000
     21 N16          5.7100    -0.2610    -1.9960 nv         1 BUH      -1.024200
     22 N22         -4.2070    -1.1380    -0.4000 nb         1 BUH      -0.692000
     23 N24         -1.6020    -1.7100     0.1720 ns         1 BUH      -0.313900
     24 Cl          -3.5180     2.0860     2.0230 cl         1 BUH      -0.119000
     25 F28         -7.8500     0.0510    -2.0390 f          1 BUH      -0.105333
     26 F29         -8.5010    -0.3940    -0.0130 f          1 BUH      -0.105333
     27 F30         -8.0990     1.6580    -0.6040 f          1 BUH      -0.105333
     28 H1          -1.0340    -4.3090    -0.1610 ha         1 BUH       0.129000
     29 H2           1.2940    -5.2740    -0.1990 ha         1 BUH       0.138000
     30 H3           1.9860     0.7670    -0.3350 h1         1 BUH       0.083200
     31 H4           1.9490     0.7080     1.4370 h1         1 BUH       0.083200
     32 H5           3.1190    -1.1500     2.7180 hc         1 BUH       0.052700
     33 H6           4.2760    -2.2160     1.9170 hc         1 BUH       0.052700
     34 H7           4.6430    -0.5030     2.1020 hc         1 BUH       0.052700
     35 H8           3.0680     1.7710    -2.0760 hc         1 BUH       0.059033
     36 H9           3.6440     3.2590    -1.3110 hc         1 BUH       0.059033
     37 H10          4.6470     2.4270    -2.5020 hc         1 BUH       0.059033
     38 H11         -5.9460    -1.6450    -1.4160 h4         1 BUH       0.046100
     39 H12         -6.1080     1.9850     0.9490 ha         1 BUH       0.154000
     40 H13          5.7760     0.4980    -2.6630 hn         1 BUH       0.476500
     41 H14          5.6040    -1.1810    -2.4060 hn         1 BUH       0.476500
     42 H15         -2.2710    -2.1980    -0.4080 hn         1 BUH       0.188000
     43 C31          5.9550     2.0940    -0.0400 c3         1 BUH       0.317000
     44 C23         -2.1050    -0.5810     0.8030 c          1 BUH       0.520600
     45 F32          5.7470     3.3220     0.4920 f          1 BUH      -0.106667
     46 F33          6.5640     1.3510     0.9140 f          1 BUH      -0.106667
     47 F34          6.8460     2.2570    -1.0460 f          1 BUH      -0.106667
     48 C26         -7.6690     0.3830    -0.7410 c3         1 BUH       0.368300
     49 O25         -1.4330     0.0700     1.5970 o          1 BUH      -0.513100
@<TRIPOS>BOND
     1     1     2 ar  
     2     1    15 ar  
     3     1    23 1   
     4     2     3 ar  
     5     2    28 1   
     6     3    13 ar  
     7     3    29 1   
     8     4     7 1   
     9     4    19 1   
    10     4    20 1   
    11     4    43 1   
    12     5    17 1   
    13     5    20 1   
    14     5    30 1   
    15     5    31 1   
    16     6    17 1   
    17     6    32 1   
    18     6    33 1   
    19     6    34 1   
    20     7    35 1   
    21     7    36 1   
    22     7    37 1   
    23     8     9 ar  
    24     8    22 ar  
    25     8    38 1   
    26     9    10 ar  
    27     9    48 1   
    28    10    11 ar  
    29    10    39 1   
    30    11    12 ar  
    31    11    24 1   
    32    12    22 ar  
    33    12    44 1   
    34    13    14 ar  
    35    13    16 1   
    36    14    15 ar  
    37    14    17 1   
    38    17    18 1   
    39    18    19 2   
    40    19    21 1   
    41    21    40 1   
    42    21    41 1   
    43    23    42 1   
    44    23    44 1   
    45    25    48 1   
    46    26    48 1   
    47    27    48 1   
    48    43    45 1   
    49    43    46 1   
    50    43    47 1   
    51    44    49 2   
@<TRIPOS>SUBSTRUCTURE
     1 BUH         1 TEMP              0 ****  ****    0 ROOT
