@<TRIPOS>MOLECULE
BUI
   73    72     1     0     0
SMALL
abcg2


@<TRIPOS>ATOM
      1 O9          -5.9070     2.7100    -1.1930 o          1 BUI      -0.711500
      2 C3          -5.9510     2.7020     0.0540 c          1 BUI       0.719000
      3 O8          -5.5580     3.6040     0.8190 o          1 BUI      -0.711500
      4 C2          -6.5950     1.4760     0.7330 c3         1 BUI      -0.249400
      5 C5          -6.5880     0.2230    -0.1420 c3         1 BUI       0.118700
      6 C10         -7.3470    -0.8780     0.5870 c3         1 BUI       0.091600
      7 N6          -7.6170    -2.1590    -0.1670 n4         1 BUI      -0.489000
      8 C14         -6.4010    -3.0140    -0.2870 c3         1 BUI       0.078233
      9 C13         -8.6360    -2.9180     0.6150 c3         1 BUI       0.078233
     10 C12         -8.1600    -1.8840    -1.5240 c3         1 BUI       0.078233
     11 N4          -5.2580    -0.1480    -0.5970 ns         1 BUI      -0.509900
     12 C1          -4.2320    -0.3910     0.2800 c          1 BUI       0.640100
     13 O7          -4.4180    -0.7310     1.4440 o          1 BUI      -0.666100
     14 N11         -2.9910    -0.2880    -0.2540 ns         1 BUI      -0.512900
     15 C15         -1.8010    -0.3820     0.5650 c3         1 BUI       0.112000
     16 C16         -0.5520    -0.3350    -0.3010 c3         1 BUI      -0.094400
     17 C24          0.7210    -0.3270     0.5350 c3         1 BUI      -0.072400
     18 C26          1.9860    -0.2800    -0.3130 c3         1 BUI      -0.074400
     19 C27          3.2610    -0.2050     0.5160 c3         1 BUI      -0.074400
     20 C19          4.5250    -0.1550    -0.3330 c3         1 BUI      -0.074400
     21 C20          5.8030    -0.0440     0.4890 c3         1 BUI      -0.074400
     22 C21          7.0630    -0.0020    -0.3660 c3         1 BUI      -0.074400
     23 C22          8.3450     0.1270     0.4480 c3         1 BUI      -0.074400
     24 C23          9.6010     0.1570    -0.4140 c3         1 BUI      -0.074400
     25 C25         10.8870     0.2870     0.3930 c3         1 BUI      -0.074400
     26 C18         12.1380     0.3090    -0.4760 c3         1 BUI      -0.075400
     27 C17         13.4300     0.4290     0.3230 c3         1 BUI      -0.075400
     28 C28         14.6690     0.4450    -0.5620 c3         1 BUI      -0.088100
     29 H21         -7.6340     1.7370     0.9660 hc         1 BUI       0.049200
     30 H22         -6.1130     1.2790     1.6920 hc         1 BUI       0.049200
     31 H5          -7.1340     0.4750    -1.0510 h1         1 BUI       0.073700
     32 H101        -6.8520    -1.1640     1.5110 hx         1 BUI       0.096200
     33 H102        -8.3290    -0.4780     0.8410 hx         1 BUI       0.096200
     34 H141        -5.9860    -3.1840     0.7030 hx         1 BUI       0.090144
     35 H142        -6.6920    -3.9650    -0.7270 hx         1 BUI       0.090144
     36 H143        -5.6720    -2.5250    -0.9210 hx         1 BUI       0.090144
     37 H131        -9.5460    -2.3300     0.6870 hx         1 BUI       0.090144
     38 H132        -8.8460    -3.8570     0.1100 hx         1 BUI       0.090144
     39 H133        -8.2450    -3.1150     1.6100 hx         1 BUI       0.090144
     40 H121        -7.3880    -1.4380    -2.1430 hx         1 BUI       0.090144
     41 H122        -8.4800    -2.8220    -1.9690 hx         1 BUI       0.090144
     42 H123        -9.0100    -1.2110    -1.4430 hx         1 BUI       0.090144
     43 HN4         -5.0060     0.3320    -1.4480 hn         1 BUI       0.328500
     44 H11         -2.8860     0.1400    -1.1610 hn         1 BUI       0.315500
     45 H151        -1.8200    -1.3150     1.1320 h1         1 BUI       0.052200
     46 H152        -1.7660     0.4340     1.2970 h1         1 BUI       0.052200
     47 H161        -0.5760     0.5630    -0.9270 hc         1 BUI       0.043700
     48 H162        -0.5470    -1.1920    -0.9820 hc         1 BUI       0.043700
     49 H241         0.7450    -1.2140     1.1770 hc         1 BUI       0.043200
     50 H242         0.7050     0.5370     1.2080 hc         1 BUI       0.043200
     51 H261         1.9390     0.5850    -0.9840 hc         1 BUI       0.037700
     52 H262         2.0230    -1.1630    -0.9610 hc         1 BUI       0.037700
     53 H271         3.3100    -1.0660     1.1920 hc         1 BUI       0.038700
     54 H272         3.2220     0.6820     1.1590 hc         1 BUI       0.038700
     55 H191         4.4640     0.6940    -1.0230 hc         1 BUI       0.037200
     56 H192         4.5750    -1.0520    -0.9620 hc         1 BUI       0.037200
     57 H201         5.8640    -0.8880     1.1850 hc         1 BUI       0.037700
     58 H202         5.7560     0.8570     1.1110 hc         1 BUI       0.037700
     59 H211         6.9950     0.8360    -1.0690 hc         1 BUI       0.036700
     60 H212         7.1130    -0.9080    -0.9810 hc         1 BUI       0.036700
     61 H221         8.4120    -0.7070     1.1570 hc         1 BUI       0.037700
     62 H222         8.2990     1.0370     1.0560 hc         1 BUI       0.037700
     63 H231         9.5320     0.9890    -1.1240 hc         1 BUI       0.037200
     64 H232         9.6440    -0.7550    -1.0210 hc         1 BUI       0.037200
     65 H251        10.9550    -0.5430     1.1050 hc         1 BUI       0.037200
     66 H252        10.8470     1.2000     0.9970 hc         1 BUI       0.037200
     67 H181        12.0720     1.1410    -1.1860 hc         1 BUI       0.037200
     68 H182        12.1730    -0.6030    -1.0840 hc         1 BUI       0.037200
     69 H171        13.4960    -0.4020     1.0320 hc         1 BUI       0.036700
     70 H172        13.3990     1.3410     0.9280 hc         1 BUI       0.036700
     71 H281        14.6460     1.2880    -1.2550 hc         1 BUI       0.031033
     72 H282        15.5850     0.5240     0.0260 hc         1 BUI       0.031033
     73 H283        14.7370    -0.4680    -1.1560 hc         1 BUI       0.031033
@<TRIPOS>BOND
     1     1     2 1   
     2     2     3 1   
     3     2     4 1   
     4     4     5 1   
     5     4    29 1   
     6     4    30 1   
     7     5     6 1   
     8     5    11 1   
     9     5    31 1   
    10     6     7 1   
    11     6    32 1   
    12     6    33 1   
    13     7     8 1   
    14     7     9 1   
    15     7    10 1   
    16     8    34 1   
    17     8    35 1   
    18     8    36 1   
    19     9    37 1   
    20     9    38 1   
    21     9    39 1   
    22    10    40 1   
    23    10    41 1   
    24    10    42 1   
    25    11    12 1   
    26    11    43 1   
    27    12    13 2   
    28    12    14 1   
    29    14    15 1   
    30    14    44 1   
    31    15    16 1   
    32    15    45 1   
    33    15    46 1   
    34    16    17 1   
    35    16    47 1   
    36    16    48 1   
    37    17    18 1   
    38    17    49 1   
    39    17    50 1   
    40    18    19 1   
    41    18    51 1   
    42    18    52 1   
    43    19    20 1   
    44    19    53 1   
    45    19    54 1   
    46    20    21 1   
    47    20    55 1   
    48    20    56 1   
    49    21    22 1   
    50    21    57 1   
    51    21    58 1   
    52    22    23 1   
    53    22    59 1   
    54    22    60 1   
    55    23    24 1   
    56    23    61 1   
    57    23    62 1   
    58    24    25 1   
    59    24    63 1   
    60    24    64 1   
    61    25    26 1   
    62    25    65 1   
    63    25    66 1   
    64    26    27 1   
    65    26    67 1   
    66    26    68 1   
    67    27    28 1   
    68    27    69 1   
    69    27    70 1   
    70    28    71 1   
    71    28    72 1   
    72    28    73 1   
@<TRIPOS>SUBSTRUCTURE
     1 BUI         1 TEMP              0 ****  ****    0 ROOT
