@<TRIPOS>MOLECULE
BUI
   73    72     1     0     0
SMALL
No Charge or Current Charge


@<TRIPOS>ATOM
      1 O9          -8.3460     2.9030    -1.0410 o          1 BUI      -0.711500
      2 C3          -7.4980     2.6700    -0.1930 c          1 BUI       0.719000
      3 O8          -6.5680     3.4200     0.0620 o          1 BUI      -0.711500
      4 C2          -7.6020     1.3480     0.5720 c3         1 BUI      -0.249400
      5 C5          -6.9240     0.2030    -0.2180 c3         1 BUI       0.118700
      6 C10         -7.1950    -1.1780     0.4420 c3         1 BUI       0.091600
      7 N6          -6.6830    -2.4690    -0.2380 n4         1 BUI      -0.489000
      8 C14         -5.1630    -2.6330    -0.1230 c3         1 BUI       0.078233
      9 C13         -7.3390    -3.6640     0.4650 c3         1 BUI       0.078233
     10 C12         -7.0870    -2.4950    -1.7190 c3         1 BUI       0.078233
     11 N4          -5.4950     0.4510    -0.4250 ns         1 BUI      -0.509900
     12 C1          -4.5220     0.3170     0.5280 c          1 BUI       0.640100
     13 O7          -4.7250     0.0120     1.6910 o          1 BUI      -0.666100
     14 N11         -3.2730     0.5550     0.0280 ns         1 BUI      -0.512900
     15 C15         -2.0450     0.4580     0.8150 c3         1 BUI       0.112000
     16 C16         -0.7940     0.4440    -0.0840 c3         1 BUI      -0.094400
     17 C24          0.5210     0.3350     0.7190 c3         1 BUI      -0.072400
     18 C26          1.7770     0.3190    -0.1790 c3         1 BUI      -0.074400
     19 C27          3.0920     0.2100     0.6230 c3         1 BUI      -0.074400
     20 C19          4.3480     0.1940    -0.2750 c3         1 BUI      -0.074400
     21 C20          5.6640     0.0840     0.5280 c3         1 BUI      -0.074400
     22 C21          6.9200     0.0680    -0.3700 c3         1 BUI      -0.074400
     23 C22          8.2350    -0.0420     0.4320 c3         1 BUI      -0.074400
     24 C23          9.4910    -0.0580    -0.4660 c3         1 BUI      -0.074400
     25 C25         10.8060    -0.1680     0.3360 c3         1 BUI      -0.074400
     26 C18         12.0630    -0.1840    -0.5620 c3         1 BUI      -0.075400
     27 C17         13.3780    -0.2940     0.2400 c3         1 BUI      -0.075400
     28 C28         14.6320    -0.3100    -0.6550 c3         1 BUI      -0.088100
     29 H21         -8.6560     1.0560     0.6510 hc         1 BUI       0.049200
     30 H22         -7.0930     1.4200     1.5400 hc         1 BUI       0.049200
     31 H5          -7.3920     0.1900    -1.2120 h1         1 BUI       0.073700
     32 H101        -6.7910    -1.1630     1.4560 hx         1 BUI       0.096200
     33 H102        -8.2780    -1.2810     0.5300 hx         1 BUI       0.096200
     34 H141        -4.8700    -2.5440     0.9250 hx         1 BUI       0.090144
     35 H142        -4.8780    -3.6170    -0.5030 hx         1 BUI       0.090144
     36 H143        -4.6690    -1.8620    -0.7140 hx         1 BUI       0.090144
     37 H131        -8.4250    -3.5840     0.3770 hx         1 BUI       0.090144
     38 H132        -7.0000    -4.5900    -0.0050 hx         1 BUI       0.090144
     39 H133        -7.0540    -3.6620     1.5190 hx         1 BUI       0.090144
     40 H121        -6.6030    -1.6660    -2.2390 hx         1 BUI       0.090144
     41 H122        -6.7690    -3.4410    -2.1620 hx         1 BUI       0.090144
     42 H123        -8.1720    -2.3980    -1.7980 hx         1 BUI       0.090144
     43 HN4         -5.1940     0.7380    -1.3460 hn         1 BUI       0.328500
     44 H11         -3.2000     0.8130    -0.9470 hn         1 BUI       0.315500
     45 H151        -2.0750    -0.4630     1.4130 h1         1 BUI       0.052200
     46 H152        -1.9980     1.3140     1.5020 h1         1 BUI       0.052200
     47 H161        -0.7740     1.3600    -0.6880 hc         1 BUI       0.043700
     48 H162        -0.8630    -0.4010    -0.7800 hc         1 BUI       0.043700
     49 H241         0.4990    -0.5800     1.3240 hc         1 BUI       0.043200
     50 H242         0.5870     1.1800     1.4170 hc         1 BUI       0.043200
     51 H261         1.7990     1.2340    -0.7840 hc         1 BUI       0.037700
     52 H262         1.7100    -0.5250    -0.8770 hc         1 BUI       0.037700
     53 H271         3.0700    -0.7050     1.2280 hc         1 BUI       0.038700
     54 H272         3.1590     1.0540     1.3210 hc         1 BUI       0.038700
     55 H191         4.3710     1.1090    -0.8800 hc         1 BUI       0.037200
     56 H192         4.2810    -0.6500    -0.9730 hc         1 BUI       0.037200
     57 H201         5.6410    -0.8310     1.1320 hc         1 BUI       0.037700
     58 H202         5.7310     0.9280     1.2260 hc         1 BUI       0.037700
     59 H211         6.9420     0.9830    -0.9750 hc         1 BUI       0.036700
     60 H212         6.8530    -0.7760    -1.0690 hc         1 BUI       0.036700
     61 H221         8.2130    -0.9570     1.0370 hc         1 BUI       0.037700
     62 H222         8.3020     0.8020     1.1300 hc         1 BUI       0.037700
     63 H231         9.5140     0.8580    -1.0710 hc         1 BUI       0.037200
     64 H232         9.4240    -0.9020    -1.1640 hc         1 BUI       0.037200
     65 H251        10.7840    -1.0830     0.9410 hc         1 BUI       0.037200
     66 H252        10.8740     0.6760     1.0350 hc         1 BUI       0.037200
     67 H181        12.0850     0.7320    -1.1660 hc         1 BUI       0.037200
     68 H182        11.9960    -1.0270    -1.2600 hc         1 BUI       0.037200
     69 H171        13.3600    -1.2090     0.8450 hc         1 BUI       0.036700
     70 H172        13.4500     0.5490     0.9390 hc         1 BUI       0.036700
     71 H281        14.6970     0.6110    -1.2480 hc         1 BUI       0.031033
     72 H282        15.5380    -0.3890    -0.0430 hc         1 BUI       0.031033
     73 H283        14.6070    -1.1640    -1.3430 hc         1 BUI       0.031033
@<TRIPOS>BOND
     1     1     2 1   
     2     2     3 1   
     3     2     4 1   
     4     4     5 1   
     5     4    29 1   
     6     4    30 1   
     7     5     6 1   
     8     5    11 1   
     9     5    31 1   
    10     6     7 1   
    11     6    32 1   
    12     6    33 1   
    13     7     8 1   
    14     7     9 1   
    15     7    10 1   
    16     8    34 1   
    17     8    35 1   
    18     8    36 1   
    19     9    37 1   
    20     9    38 1   
    21     9    39 1   
    22    10    40 1   
    23    10    41 1   
    24    10    42 1   
    25    11    12 1   
    26    11    43 1   
    27    12    13 2   
    28    12    14 1   
    29    14    15 1   
    30    14    44 1   
    31    15    16 1   
    32    15    45 1   
    33    15    46 1   
    34    16    17 1   
    35    16    47 1   
    36    16    48 1   
    37    17    18 1   
    38    17    49 1   
    39    17    50 1   
    40    18    19 1   
    41    18    51 1   
    42    18    52 1   
    43    19    20 1   
    44    19    53 1   
    45    19    54 1   
    46    20    21 1   
    47    20    55 1   
    48    20    56 1   
    49    21    22 1   
    50    21    57 1   
    51    21    58 1   
    52    22    23 1   
    53    22    59 1   
    54    22    60 1   
    55    23    24 1   
    56    23    61 1   
    57    23    62 1   
    58    24    25 1   
    59    24    63 1   
    60    24    64 1   
    61    25    26 1   
    62    25    65 1   
    63    25    66 1   
    64    26    27 1   
    65    26    67 1   
    66    26    68 1   
    67    27    28 1   
    68    27    69 1   
    69    27    70 1   
    70    28    71 1   
    71    28    72 1   
    72    28    73 1   
@<TRIPOS>SUBSTRUCTURE
     1 BUI         1 TEMP              0 ****  ****    0 ROOT
