@<TRIPOS>MOLECULE
BUJ
   74    73     1     0     0
SMALL
No Charge or Current Charge


@<TRIPOS>ATOM
      1 O14          6.1000    -3.5490     0.7280 o          1 BUJ      -0.710000
      2 C7           5.5260    -2.5920     1.2220 c          1 BUJ       0.722000
      3 O13          4.3240    -2.5560     1.4360 o          1 BUJ      -0.710000
      4 C4           6.3650    -1.3570     1.5610 c3         1 BUJ      -0.242400
      5 C1           6.5210    -0.4430     0.3230 c3         1 BUJ       0.121700
      6 C3           7.5100     0.7230     0.6030 c3         1 BUJ       0.080600
      7 N6           7.8800     1.7060    -0.5310 n4         1 BUJ      -0.492000
      8 C12          6.7310     2.6590    -0.8810 c3         1 BUJ       0.077567
      9 C11          9.0640     2.5550    -0.0510 c3         1 BUJ       0.077567
     10 C10          8.3090     0.9400    -1.7900 c3         1 BUJ       0.077567
     11 N2           5.2260     0.0290    -0.1730 ns         1 BUJ      -0.507900
     12 C5           4.4380     0.9870     0.4240 c          1 BUJ       0.600100
     13 O9           4.7500     1.5690     1.4520 o          1 BUJ      -0.623100
     14 C8           3.1440     1.3070    -0.3300 c3         1 BUJ      -0.159400
     15 C15          1.9080     0.7250     0.3940 c3         1 BUJ      -0.063400
     16 C16          0.5820     1.0270    -0.3390 c3         1 BUJ      -0.076400
     17 C17         -0.6530     0.4480     0.3840 c3         1 BUJ      -0.074400
     18 C18         -1.9790     0.7510    -0.3480 c3         1 BUJ      -0.074400
     19 C19         -3.2150     0.1720     0.3750 c3         1 BUJ      -0.074400
     20 C20         -4.5400     0.4760    -0.3570 c3         1 BUJ      -0.074400
     21 C21         -5.7760    -0.1030     0.3650 c3         1 BUJ      -0.074400
     22 C22         -7.1020     0.2010    -0.3670 c3         1 BUJ      -0.074400
     23 C23         -8.3380    -0.3780     0.3560 c3         1 BUJ      -0.074400
     24 C24         -9.6630    -0.0730    -0.3760 c3         1 BUJ      -0.074400
     25 C25        -10.9000    -0.6520     0.3470 c3         1 BUJ      -0.074400
     26 C26        -12.2250    -0.3480    -0.3850 c3         1 BUJ      -0.075400
     27 C27        -13.4610    -0.9260     0.3370 c3         1 BUJ      -0.075400
     28 C28        -14.7840    -0.6230    -0.3930 c3         1 BUJ      -0.088100
     29 H41          5.8780    -0.7630     2.3440 hc         1 BUJ       0.048200
     30 H42          7.3840    -1.6690     1.8180 hc         1 BUJ       0.048200
     31 H1           6.9590    -1.0650    -0.4710 h1         1 BUJ       0.076700
     32 H31          7.1200     1.3150     1.4330 hx         1 BUJ       0.098200
     33 H32          8.4440     0.2710     0.9420 hx         1 BUJ       0.098200
     34 H121         6.3820     3.1510     0.0290 hx         1 BUJ       0.090144
     35 H122         7.0890     3.4070    -1.5920 hx         1 BUJ       0.090144
     36 H123         5.9160     2.0920    -1.3350 hx         1 BUJ       0.090144
     37 H111         9.9060     1.9000     0.1830 hx         1 BUJ       0.090144
     38 H112         9.3510     3.2530    -0.8410 hx         1 BUJ       0.090144
     39 H113         8.7700     3.1110     0.8410 hx         1 BUJ       0.090144
     40 H101         7.4660     0.3540    -2.1600 hx         1 BUJ       0.090144
     41 H102         8.6230     1.6530    -2.5550 hx         1 BUJ       0.090144
     42 H103         9.1400     0.2770    -1.5430 hx         1 BUJ       0.090144
     43 H2           4.8540    -0.3950    -1.0150 hn         1 BUJ       0.337500
     44 H81          3.0330     2.3960    -0.3860 hc         1 BUJ       0.061700
     45 H82          3.1840     0.8870    -1.3420 hc         1 BUJ       0.061700
     46 H151         2.0270    -0.3620     0.4920 hc         1 BUJ       0.053200
     47 H152         1.8590     1.1330     1.4110 hc         1 BUJ       0.053200
     48 H161         0.4650     2.1140    -0.4370 hc         1 BUJ       0.036700
     49 H162         0.6300     0.6170    -1.3550 hc         1 BUJ       0.036700
     50 H171        -0.5370    -0.6390     0.4820 hc         1 BUJ       0.039200
     51 H172        -0.7010     0.8580     1.4010 hc         1 BUJ       0.039200
     52 H181        -2.0950     1.8380    -0.4460 hc         1 BUJ       0.037200
     53 H182        -1.9310     0.3410    -1.3650 hc         1 BUJ       0.037200
     54 H191        -3.0980    -0.9150     0.4730 hc         1 BUJ       0.037200
     55 H192        -3.2630     0.5820     1.3910 hc         1 BUJ       0.037200
     56 H201        -4.6570     1.5630    -0.4560 hc         1 BUJ       0.037200
     57 H202        -4.4930     0.0660    -1.3740 hc         1 BUJ       0.037200
     58 H211        -5.6600    -1.1900     0.4630 hc         1 BUJ       0.037200
     59 H212        -5.8240     0.3070     1.3820 hc         1 BUJ       0.037200
     60 H221        -7.2180     1.2880    -0.4650 hc         1 BUJ       0.036700
     61 H222        -7.0540    -0.2090    -1.3830 hc         1 BUJ       0.036700
     62 H231        -8.2220    -1.4640     0.4540 hc         1 BUJ       0.037200
     63 H232        -8.3860     0.0330     1.3720 hc         1 BUJ       0.037200
     64 H241        -9.7790     1.0130    -0.4740 hc         1 BUJ       0.037200
     65 H242        -9.6160    -0.4840    -1.3930 hc         1 BUJ       0.037200
     66 H251       -10.7840    -1.7390     0.4440 hc         1 BUJ       0.037200
     67 H252       -10.9470    -0.2420     1.3630 hc         1 BUJ       0.037200
     68 H261       -12.3410     0.7390    -0.4830 hc         1 BUJ       0.037200
     69 H262       -12.1780    -0.7580    -1.4020 hc         1 BUJ       0.037200
     70 H271       -13.3500    -2.0130     0.4350 hc         1 BUJ       0.036700
     71 H272       -13.5130    -0.5170     1.3540 hc         1 BUJ       0.036700
     72 H281       -15.6310    -1.0520     0.1560 hc         1 BUJ       0.031367
     73 H282       -14.9420     0.4590    -0.4760 hc         1 BUJ       0.031367
     74 H283       -14.7770    -1.0510    -1.4030 hc         1 BUJ       0.031367
@<TRIPOS>BOND
     1     1     2 1   
     2     2     3 1   
     3     2     4 1   
     4     4     5 1   
     5     4    29 1   
     6     4    30 1   
     7     5     6 1   
     8     5    11 1   
     9     5    31 1   
    10     6     7 1   
    11     6    32 1   
    12     6    33 1   
    13     7     8 1   
    14     7     9 1   
    15     7    10 1   
    16     8    34 1   
    17     8    35 1   
    18     8    36 1   
    19     9    37 1   
    20     9    38 1   
    21     9    39 1   
    22    10    40 1   
    23    10    41 1   
    24    10    42 1   
    25    11    12 1   
    26    11    43 1   
    27    12    13 2   
    28    12    14 1   
    29    14    15 1   
    30    14    44 1   
    31    14    45 1   
    32    15    16 1   
    33    15    46 1   
    34    15    47 1   
    35    16    17 1   
    36    16    48 1   
    37    16    49 1   
    38    17    18 1   
    39    17    50 1   
    40    17    51 1   
    41    18    19 1   
    42    18    52 1   
    43    18    53 1   
    44    19    20 1   
    45    19    54 1   
    46    19    55 1   
    47    20    21 1   
    48    20    56 1   
    49    20    57 1   
    50    21    22 1   
    51    21    58 1   
    52    21    59 1   
    53    22    23 1   
    54    22    60 1   
    55    22    61 1   
    56    23    24 1   
    57    23    62 1   
    58    23    63 1   
    59    24    25 1   
    60    24    64 1   
    61    24    65 1   
    62    25    26 1   
    63    25    66 1   
    64    25    67 1   
    65    26    27 1   
    66    26    68 1   
    67    26    69 1   
    68    27    28 1   
    69    27    70 1   
    70    27    71 1   
    71    28    72 1   
    72    28    73 1   
    73    28    74 1   
@<TRIPOS>SUBSTRUCTURE
     1 BUJ         1 TEMP              0 ****  ****    0 ROOT
