@<TRIPOS>MOLECULE
BUJ
   74    73     1     0     0
SMALL
bcc


@<TRIPOS>ATOM
      1 O14          6.9090    -2.7170    -1.2760 o          1 BUJ      -0.815300
      2 C7           6.7940    -2.7870    -0.0370 c          1 BUJ       0.932600
      3 O13          6.5320    -3.8050     0.6310 o          1 BUJ      -0.815300
      4 C4           7.0420    -1.4970     0.7710 c3         1 BUJ      -0.242400
      5 C1           6.8440    -0.2270    -0.0530 c3         1 BUJ       0.121700
      6 C3           7.2870     0.9770     0.7730 c3         1 BUJ       0.108800
      7 N6           7.4520     2.2960     0.0540 n4         1 BUJ      -0.604800
      8 C12          6.1490     2.8650    -0.3930 c3         1 BUJ       0.105767
      9 C11          8.0650     3.2450     1.0280 c3         1 BUJ       0.105767
     10 C10          8.3600     2.1610    -1.1170 c3         1 BUJ       0.105767
     11 N2           5.4950    -0.1310    -0.5850 ns         1 BUJ      -0.574900
     12 C5           4.3750    -0.0100     0.1560 c          1 BUJ       0.667100
     13 O9           4.3940     0.2190     1.3570 o          1 BUJ      -0.623100
     14 C8           3.0850    -0.1510    -0.6280 c3         1 BUJ      -0.159400
     15 C15          1.8340     0.0280     0.2160 c3         1 BUJ      -0.063400
     16 C16          0.5580    -0.1260    -0.6010 c3         1 BUJ      -0.076400
     17 C17         -0.7010     0.0450     0.2400 c3         1 BUJ      -0.074400
     18 C18         -1.9890    -0.1040    -0.5580 c3         1 BUJ      -0.074400
     19 C19         -3.2420     0.0610     0.2930 c3         1 BUJ      -0.074400
     20 C20         -4.5350    -0.0870    -0.4980 c3         1 BUJ      -0.074400
     21 C21         -5.7850     0.0730     0.3580 c3         1 BUJ      -0.074400
     22 C22         -7.0800    -0.0750    -0.4320 c3         1 BUJ      -0.074400
     23 C23         -8.3300     0.0790     0.4260 c3         1 BUJ      -0.074400
     24 C24         -9.6240    -0.0710    -0.3640 c3         1 BUJ      -0.074400
     25 C25        -10.8750     0.0730     0.4930 c3         1 BUJ      -0.074400
     26 C26        -12.1670    -0.0800    -0.2990 c3         1 BUJ      -0.075400
     27 C27        -13.4210     0.0520     0.5570 c3         1 BUJ      -0.075400
     28 C28        -14.7040    -0.1080    -0.2460 c3         1 BUJ      -0.088100
     29 H41          6.4080    -1.4830     1.6590 hc         1 BUJ       0.048200
     30 H42          8.0750    -1.5270     1.1360 hc         1 BUJ       0.048200
     31 H1           7.4930    -0.3170    -0.9240 h1         1 BUJ       0.076700
     32 H31          6.6090     1.1600     1.6030 hx         1 BUJ       0.098200
     33 H32          8.2710     0.7510     1.1840 hx         1 BUJ       0.098200
     34 H121         5.4620     2.8860     0.4490 hx         1 BUJ       0.090144
     35 H122         6.3190     3.8780    -0.7490 hx         1 BUJ       0.090144
     36 H123         5.7390     2.2630    -1.1950 hx         1 BUJ       0.090144
     37 H111         9.0340     2.8640     1.3390 hx         1 BUJ       0.090144
     38 H112         8.1870     4.2140     0.5520 hx         1 BUJ       0.090144
     39 H113         7.4120     3.3380     1.8920 hx         1 BUJ       0.090144
     40 H101         7.8850     1.5620    -1.8870 hx         1 BUJ       0.090144
     41 H102         8.5700     3.1500    -1.5140 hx         1 BUJ       0.090144
     42 H103         9.2870     1.6900    -0.8000 hx         1 BUJ       0.090144
     43 H2           5.3880    -0.4380    -1.5380 hn         1 BUJ       0.337500
     44 H81          3.0950     0.5750    -1.4480 hc         1 BUJ       0.061700
     45 H82          3.0800    -1.1340    -1.1100 hc         1 BUJ       0.061700
     46 H151         1.8310    -0.7010     1.0310 hc         1 BUJ       0.053200
     47 H152         1.8440     1.0140     0.6880 hc         1 BUJ       0.053200
     48 H161         0.5530     0.6060    -1.4160 hc         1 BUJ       0.036700
     49 H162         0.5450    -1.1120    -1.0790 hc         1 BUJ       0.036700
     50 H171        -0.6930    -0.6880     1.0550 hc         1 BUJ       0.039200
     51 H172        -0.6840     1.0300     0.7210 hc         1 BUJ       0.039200
     52 H181        -2.0010     0.6320    -1.3690 hc         1 BUJ       0.037200
     53 H182        -2.0050    -1.0870    -1.0420 hc         1 BUJ       0.037200
     54 H191        -3.2280    -0.6760     1.1050 hc         1 BUJ       0.037200
     55 H192        -3.2240     1.0430     0.7790 hc         1 BUJ       0.037200
     56 H201        -4.5520     0.6520    -1.3070 hc         1 BUJ       0.037200
     57 H202        -4.5520    -1.0690    -0.9850 hc         1 BUJ       0.037200
     58 H211        -5.7680    -0.6660     1.1670 hc         1 BUJ       0.037200
     59 H212        -5.7690     1.0540     0.8460 hc         1 BUJ       0.037200
     60 H221        -7.0990     0.6660    -1.2380 hc         1 BUJ       0.036700
     61 H222        -7.0950    -1.0550    -0.9220 hc         1 BUJ       0.036700
     62 H231        -8.3100    -0.6620     1.2320 hc         1 BUJ       0.037200
     63 H232        -8.3160     1.0590     0.9160 hc         1 BUJ       0.037200
     64 H241        -9.6460     0.6730    -1.1680 hc         1 BUJ       0.037200
     65 H242        -9.6340    -1.0490    -0.8590 hc         1 BUJ       0.037200
     66 H251       -10.8520    -0.6710     1.2970 hc         1 BUJ       0.037200
     67 H252       -10.8650     1.0520     0.9880 hc         1 BUJ       0.037200
     68 H261       -12.1950     0.6700    -1.0980 hc         1 BUJ       0.037200
     69 H262       -12.1720    -1.0550    -0.7990 hc         1 BUJ       0.037200
     70 H271       -13.3930    -0.6970     1.3550 hc         1 BUJ       0.036700
     71 H272       -13.4180     1.0260     1.0570 hc         1 BUJ       0.036700
     72 H281       -15.5890    -0.0230     0.3870 hc         1 BUJ       0.031367
     73 H282       -14.7800     0.6540    -1.0240 hc         1 BUJ       0.031367
     74 H283       -14.7420    -1.0830    -0.7360 hc         1 BUJ       0.031367
@<TRIPOS>BOND
     1     1     2 1   
     2     2     3 1   
     3     2     4 1   
     4     4     5 1   
     5     4    29 1   
     6     4    30 1   
     7     5     6 1   
     8     5    11 1   
     9     5    31 1   
    10     6     7 1   
    11     6    32 1   
    12     6    33 1   
    13     7     8 1   
    14     7     9 1   
    15     7    10 1   
    16     8    34 1   
    17     8    35 1   
    18     8    36 1   
    19     9    37 1   
    20     9    38 1   
    21     9    39 1   
    22    10    40 1   
    23    10    41 1   
    24    10    42 1   
    25    11    12 1   
    26    11    43 1   
    27    12    13 2   
    28    12    14 1   
    29    14    15 1   
    30    14    44 1   
    31    14    45 1   
    32    15    16 1   
    33    15    46 1   
    34    15    47 1   
    35    16    17 1   
    36    16    48 1   
    37    16    49 1   
    38    17    18 1   
    39    17    50 1   
    40    17    51 1   
    41    18    19 1   
    42    18    52 1   
    43    18    53 1   
    44    19    20 1   
    45    19    54 1   
    46    19    55 1   
    47    20    21 1   
    48    20    56 1   
    49    20    57 1   
    50    21    22 1   
    51    21    58 1   
    52    21    59 1   
    53    22    23 1   
    54    22    60 1   
    55    22    61 1   
    56    23    24 1   
    57    23    62 1   
    58    23    63 1   
    59    24    25 1   
    60    24    64 1   
    61    24    65 1   
    62    25    26 1   
    63    25    66 1   
    64    25    67 1   
    65    26    27 1   
    66    26    68 1   
    67    26    69 1   
    68    27    28 1   
    69    27    70 1   
    70    27    71 1   
    71    28    72 1   
    72    28    73 1   
    73    28    74 1   
@<TRIPOS>SUBSTRUCTURE
     1 BUJ         1 TEMP              0 ****  ****    0 ROOT
