@<TRIPOS>MOLECULE
BUL
   62    63     1     0     0
SMALL
bcc


@<TRIPOS>ATOM
      1 O1          -0.3780     0.0280    -1.4790 os         1 BUL      -0.421600
      2 C2           0.9110     0.2600    -1.9820 c6         1 BUL       0.334900
      3 C3           1.0530    -0.4140    -3.3440 c6         1 BUL       0.076700
      4 C4          -0.0200     0.1140    -4.2970 c6         1 BUL       0.141100
      5 C5          -1.4050     0.0540    -3.6430 c6         1 BUL       0.132100
      6 C6          -1.3850     0.6560    -2.2350 c6         1 BUL       0.150100
      7 N7           3.3170     0.1260     2.0610 n7         1 BUL      -0.807200
      8 C8           1.9790     0.5380     2.4280 c5         1 BUL       0.094500
      9 C9           1.1330     0.0950     1.2330 c5         1 BUL      -0.098400
     10 C10          2.0610     0.4300     0.0710 c5         1 BUL       0.137100
     11 C11          3.4550     0.0900     0.6090 c5         1 BUL       0.178500
     12 C12         -2.7000     0.4610    -1.5110 c3         1 BUL       0.142400
     13 O13         -2.6140     1.1000    -0.2600 oh         1 BUL      -0.603800
     14 O14         -2.3160     0.8320    -4.4200 os         1 BUL      -0.583500
     15 O15          0.0670    -0.6220    -5.4840 oh         1 BUL      -0.628800
     16 N16          2.3650    -0.1940    -3.8910 ns         1 BUL      -0.550900
     17 C17          3.3500    -1.1160    -3.9040 c          1 BUL       0.678100
     18 O18          3.1900    -2.2750    -3.5550 o          1 BUL      -0.592100
     19 C19          4.6730    -0.5900    -4.4070 c3         1 BUL      -0.182100
     20 O20          1.8280    -0.2860    -1.1190 os         1 BUL      -0.378600
     21 C21          4.5010     1.0390     0.0590 c3         1 BUL       0.114400
     22 O22          5.7650     0.6560     0.5500 oh         1 BUL      -0.588800
     23 C26          0.0030     0.1090     5.6330 c3         1 BUL       0.140000
     24 C27         -1.2280     0.9430     5.9420 c3         1 BUL      -0.267600
     25 S28         -2.1050     0.3420     7.3980 s6         1 BUL       1.217800
     26 O29         -2.5090    -1.0400     7.0720 o          1 BUL      -0.696867
     27 O30         -1.1330     0.4130     8.5070 o          1 BUL      -0.696867
     28 O31         -3.2470     1.2590     7.5640 o          1 BUL      -0.696867
     29 S32         -3.4010     0.0620    -5.3830 s6         1 BUL       1.497300
     30 O33         -4.0870     1.1940    -5.9910 o          1 BUL      -0.701200
     31 O34         -2.5760    -0.7240    -6.3210 o          1 BUL      -0.701200
     32 O35         -4.2150    -0.7680    -4.4990 o          1 BUL      -0.701200
     33 H2           1.0690     1.3510    -2.0900 h2         1 BUL       0.003700
     34 H3           0.9130    -1.4900    -3.2090 h1         1 BUL       0.119700
     35 H4           0.1900     1.1830    -4.4810 h1         1 BUL       0.024700
     36 H5          -1.7300    -0.9920    -3.5730 h1         1 BUL       0.074700
     37 H6          -1.1800     1.7360    -2.3190 h1         1 BUL       0.047700
     38 H7           4.0360     0.6670     2.5180 hn         1 BUL       0.372800
     39 H8           1.8830     1.6280     2.5440 h1         1 BUL       0.012700
     40 H91          0.1690     0.5980     1.1810 hc         1 BUL       0.089700
     41 H92          0.9610    -0.9840     1.2690 hc         1 BUL       0.089700
     42 H10          1.9990     1.5100    -0.1310 h1         1 BUL       0.019700
     43 H11          3.7140    -0.9260     0.2790 h1         1 BUL       0.102700
     44 H121        -3.5030     0.8790    -2.1250 h1         1 BUL       0.049700
     45 H122        -2.8950    -0.6150    -1.4090 h1         1 BUL       0.049700
     46 H13         -3.4880     1.0850     0.1410 ho         1 BUL       0.402000
     47 H15         -0.7990    -0.6350    -5.9280 ho         1 BUL       0.472000
     48 H16          2.5950     0.7460    -4.1750 hn         1 BUL       0.297500
     49 H191         5.4230    -1.3760    -4.3940 hc         1 BUL       0.049700
     50 H192         4.5790    -0.2110    -5.4260 hc         1 BUL       0.049700
     51 H193         5.0220     0.2370    -3.7870 hc         1 BUL       0.049700
     52 H211         4.4630     1.0010    -1.0390 h1         1 BUL       0.015700
     53 H212         4.2460     2.0660     0.3550 h1         1 BUL       0.015700
     54 H22          6.4080     1.3160     0.2760 ho         1 BUL       0.390000
     55 H25          0.4850     1.5540     4.1620 hn         1 BUL       0.301500
     56 H261        -0.2850    -0.9320     5.4870 h1         1 BUL       0.061700
     57 H262         0.6970     0.1430     6.4760 h1         1 BUL       0.061700
     58 H271        -0.9600     1.9850     6.1310 h1         1 BUL       0.068200
     59 H272        -1.9300     0.9190     5.1060 h1         1 BUL       0.068200
     60 C23          1.5000    -0.1400     3.7050 c          1 BUL       0.664100
     61 O24          1.8300    -1.2740     4.0160 o          1 BUL      -0.590100
     62 N25          0.6380     0.5940     4.4260 ns         1 BUL      -0.570900
@<TRIPOS>BOND
     1     1     2 1   
     2     1     6 1   
     3     2     3 1   
     4     2    20 1   
     5     2    33 1   
     6     3     4 1   
     7     3    16 1   
     8     3    34 1   
     9     4     5 1   
    10     4    15 1   
    11     4    35 1   
    12     5     6 1   
    13     5    14 1   
    14     5    36 1   
    15     6    12 1   
    16     6    37 1   
    17     7     8 1   
    18     7    11 1   
    19     7    38 1   
    20     8     9 1   
    21     8    39 1   
    22     8    60 1   
    23     9    10 1   
    24     9    40 1   
    25     9    41 1   
    26    10    11 1   
    27    10    20 1   
    28    10    42 1   
    29    11    21 1   
    30    11    43 1   
    31    12    13 1   
    32    12    44 1   
    33    12    45 1   
    34    13    46 1   
    35    14    29 1   
    36    15    47 1   
    37    16    17 1   
    38    16    48 1   
    39    17    18 2   
    40    17    19 1   
    41    19    49 1   
    42    19    50 1   
    43    19    51 1   
    44    21    22 1   
    45    21    52 1   
    46    21    53 1   
    47    22    54 1   
    48    23    24 1   
    49    23    56 1   
    50    23    57 1   
    51    23    62 1   
    52    24    25 1   
    53    24    58 1   
    54    24    59 1   
    55    25    26 1   
    56    25    27 1   
    57    25    28 1   
    58    29    30 1   
    59    29    31 1   
    60    29    32 1   
    61    55    62 1   
    62    60    61 2   
    63    60    62 1   
@<TRIPOS>SUBSTRUCTURE
     1 BUL         1 TEMP              0 ****  ****    0 ROOT
