@<TRIPOS>MOLECULE
BUL
   62    63     1     0     0
SMALL
No Charge or Current Charge


@<TRIPOS>ATOM
      1 O1          -0.4090    -0.3760    -1.6650 os         1 BUL      -0.468000
      2 C2           0.8440     0.1840    -2.0900 c6         1 BUL       0.381300
      3 C3           1.1060    -0.1880    -3.5810 c6         1 BUL       0.076700
      4 C4          -0.0950     0.3400    -4.4260 c6         1 BUL       0.164300
      5 C5          -1.4590    -0.2090    -3.8840 c6         1 BUL       0.155300
      6 C6          -1.5560     0.1550    -2.3720 c6         1 BUL       0.173300
      7 N7           2.9600    -0.5280     2.1840 n7         1 BUL      -0.862400
      8 C8           1.6130     0.1010     2.3730 c5         1 BUL       0.094500
      9 C9           0.9190    -0.1780     1.0170 c5         1 BUL      -0.098400
     10 C10          2.0460     0.2940     0.0630 c5         1 BUL       0.160300
     11 C11          3.3230    -0.3080     0.7430 c5         1 BUL       0.178500
     12 C12         -2.8540    -0.4110    -1.7070 c3         1 BUL       0.165600
     13 O13         -2.9470    -0.1250    -0.2930 oh         1 BUL      -0.726000
     14 O14         -2.5680     0.3810    -4.6070 os         1 BUL      -0.606700
     15 O15          0.0880     0.0300    -5.8240 oh         1 BUL      -0.691000
     16 N16          2.3930     0.3610    -4.0820 ns         1 BUL      -0.483900
     17 C17          3.6150    -0.2670    -4.0130 c          1 BUL       0.611100
     18 O18          3.7570    -1.3940    -3.5620 o          1 BUL      -0.592100
     19 C19          4.7800     0.5490    -4.5610 c3         1 BUL      -0.182100
     20 O20          1.8940    -0.3160    -1.2430 os         1 BUL      -0.425000
     21 C21          4.5790     0.5970     0.5590 c3         1 BUL       0.137600
     22 O22          5.7010     0.1070     1.3130 oh         1 BUL      -0.651000
     23 C26         -0.3250     0.3690     5.6710 c3         1 BUL       0.140000
     24 C27         -0.4200     1.6990     6.4260 c3         1 BUL      -0.378400
     25 S28         -1.3830     1.5440     7.9400 s6         1 BUL       1.328600
     26 O29         -2.7050     1.1050     7.4730 o          1 BUL      -0.696867
     27 O30         -0.6460     0.5440     8.7240 o          1 BUL      -0.696867
     28 O31         -1.3550     2.9020     8.5030 o          1 BUL      -0.696867
     29 S32         -3.3400    -0.5220    -5.7360 s6         1 BUL       1.497300
     30 O33         -4.3670     0.3800    -6.2720 o          1 BUL      -0.701200
     31 O34         -2.2590    -0.8510    -6.6730 o          1 BUL      -0.701200
     32 O35         -3.8590    -1.6670    -4.9790 o          1 BUL      -0.701200
     33 H2           0.8050     1.2790    -1.9990 h2         1 BUL       0.003700
     34 H3           1.1350    -1.2850    -3.6570 h1         1 BUL       0.119700
     35 H4          -0.1190     1.4340    -4.3140 h1         1 BUL       0.024700
     36 H5          -1.4790    -1.3070    -3.9740 h1         1 BUL       0.074700
     37 H6          -1.5650     1.2490    -2.2600 h1         1 BUL       0.047700
     38 H7           3.6700    -0.0910     2.7880 hn         1 BUL       0.428000
     39 H8           1.7360     1.1850     2.5080 h1         1 BUL       0.012700
     40 H91         -0.0060     0.3960     0.8970 hc         1 BUL       0.089700
     41 H92          0.6830    -1.2400     0.8830 hc         1 BUL       0.089700
     42 H10          2.0930     1.3890    -0.0230 h1         1 BUL       0.019700
     43 H11          3.5590    -1.2780     0.2800 h1         1 BUL       0.102700
     44 H121        -3.7200     0.0160    -2.2320 h1         1 BUL       0.049700
     45 H122        -2.8760    -1.4960    -1.8760 h1         1 BUL       0.049700
     46 H13         -3.7620    -0.5690     0.0380 ho         1 BUL       0.501000
     47 H15         -0.8050    -0.2550    -6.1740 ho         1 BUL       0.511000
     48 H16          2.3840     1.2750    -4.5170 hn         1 BUL       0.297500
     49 H191         5.7360     0.0160    -4.5000 hc         1 BUL       0.049700
     50 H192         4.5520     0.8540    -5.5880 hc         1 BUL       0.049700
     51 H193         4.8190     1.5110    -4.0360 hc         1 BUL       0.049700
     52 H211         4.8280     0.6420    -0.5090 h1         1 BUL       0.015700
     53 H212         4.3310     1.6170     0.8850 h1         1 BUL       0.015700
     54 H22          6.4540     0.7130     1.1360 ho         1 BUL       0.429000
     55 H25          0.8460     1.4560     4.2560 hn         1 BUL       0.301500
     56 H261        -1.3280     0.0130     5.3960 h1         1 BUL       0.061700
     57 H262         0.1540    -0.3940     6.3010 h1         1 BUL       0.061700
     58 H271         0.5740     2.0510     6.7200 h1         1 BUL       0.068200
     59 H272        -0.9180     2.4590     5.8140 h1         1 BUL       0.068200
     60 C23          0.7370    -0.4700     3.5600 c          1 BUL       0.597100
     61 O24          0.3290    -1.6180     3.7070 o          1 BUL      -0.590100
     62 N25          0.4630     0.5410     4.4580 ns         1 BUL      -0.503900
@<TRIPOS>BOND
     1     1     2 1   
     2     1     6 1   
     3     2     3 1   
     4     2    20 1   
     5     2    33 1   
     6     3     4 1   
     7     3    16 1   
     8     3    34 1   
     9     4     5 1   
    10     4    15 1   
    11     4    35 1   
    12     5     6 1   
    13     5    14 1   
    14     5    36 1   
    15     6    12 1   
    16     6    37 1   
    17     7     8 1   
    18     7    11 1   
    19     7    38 1   
    20     8     9 1   
    21     8    39 1   
    22     8    60 1   
    23     9    10 1   
    24     9    40 1   
    25     9    41 1   
    26    10    11 1   
    27    10    20 1   
    28    10    42 1   
    29    11    21 1   
    30    11    43 1   
    31    12    13 1   
    32    12    44 1   
    33    12    45 1   
    34    13    46 1   
    35    14    29 1   
    36    15    47 1   
    37    16    17 1   
    38    16    48 1   
    39    17    18 2   
    40    17    19 1   
    41    19    49 1   
    42    19    50 1   
    43    19    51 1   
    44    21    22 1   
    45    21    52 1   
    46    21    53 1   
    47    22    54 1   
    48    23    24 1   
    49    23    56 1   
    50    23    57 1   
    51    23    62 1   
    52    24    25 1   
    53    24    58 1   
    54    24    59 1   
    55    25    26 1   
    56    25    27 1   
    57    25    28 1   
    58    29    30 1   
    59    29    31 1   
    60    29    32 1   
    61    55    62 1   
    62    60    61 2   
    63    60    62 1   
@<TRIPOS>SUBSTRUCTURE
     1 BUL         1 TEMP              0 ****  ****    0 ROOT
