@<TRIPOS>MOLECULE
BUM
   26    25     1     0     0
SMALL
abcg2


@<TRIPOS>ATOM
      1 CG2         69.0750    32.8920   117.7350 c3         1 BUM      -0.086433
      2 CG3         67.3360    34.3170   118.8380 c3         1 BUM      -0.086433
      3 CB          68.2220    33.0780   119.0000 c3         1 BUM      -0.035000
      4 CA          67.3820    31.7770   119.2120 c3         1 BUM       0.104500
      5 CG1         69.1660    33.2840   120.1930 c3         1 BUM      -0.086433
      6 C           66.5160    31.8350   120.4720 c          1 BUM       0.585100
      7 O           65.3980    32.3530   120.4930 o          1 BUM      -0.584100
      8 N           66.5120    31.5050   118.0630 n8         1 BUM      -0.982200
      9 N2          67.0580    31.2720   121.5660 ns         1 BUM      -0.516900
     10 CN2         66.4120    31.3190   122.8660 c3         1 BUM       0.097300
     11 HG21        69.6940    31.9940   117.8080 hc         1 BUM       0.038144
     12 HG22        69.7370    33.7510   117.6070 hc         1 BUM       0.038144
     13 HG23        68.4570    32.8160   116.8390 hc         1 BUM       0.038144
     14 HG31        66.7610    34.5150   119.7430 hc         1 BUM       0.038144
     15 HG32        66.6380    34.1970   118.0100 hc         1 BUM       0.038144
     16 HG33        67.9620    35.1890   118.6350 hc         1 BUM       0.038144
     17 HA          68.1150    30.9720   119.3620 h1         1 BUM       0.010700
     18 HG11        68.6180    33.4930   121.1130 hc         1 BUM       0.038144
     19 HG12        69.8250    34.1320   119.9970 hc         1 BUM       0.038144
     20 HG13        69.7910    32.4040   120.3610 hc         1 BUM       0.038144
     21 HN1         65.8840    30.7390   118.2830 hn         1 BUM       0.401500
     22 HN2         67.0740    31.1950   117.2790 hn         1 BUM       0.401500
     23 H2          67.9770    30.8690   121.5010 hn         1 BUM       0.311500
     24 HN21        67.0260    30.7690   123.5760 h1         1 BUM       0.040700
     25 HN22        65.4220    30.8630   122.8220 h1         1 BUM       0.040700
     26 HN23        66.3000    32.3490   123.2130 h1         1 BUM       0.040700
@<TRIPOS>BOND
     1     1     3 1   
     2     1    11 1   
     3     1    12 1   
     4     1    13 1   
     5     2     3 1   
     6     2    14 1   
     7     2    15 1   
     8     2    16 1   
     9     3     4 1   
    10     3     5 1   
    11     4     6 1   
    12     4     8 1   
    13     4    17 1   
    14     5    18 1   
    15     5    19 1   
    16     5    20 1   
    17     6     7 2   
    18     6     9 1   
    19     8    21 1   
    20     8    22 1   
    21     9    10 1   
    22     9    23 1   
    23    10    24 1   
    24    10    25 1   
    25    10    26 1   
@<TRIPOS>SUBSTRUCTURE
     1 BUM         1 TEMP              0 ****  ****    0 ROOT
