@<TRIPOS>MOLECULE
BUM
   26    25     1     0     0
SMALL
No Charge or Current Charge


@<TRIPOS>ATOM
      1 CG2         69.1440    32.8170   117.7480 c3         1 BUM      -0.086433
      2 CG3         67.3660    34.3960   118.6100 c3         1 BUM      -0.086433
      3 CB          68.2070    33.1320   118.9500 c3         1 BUM      -0.035000
      4 CA          67.2940    31.8840   119.2630 c3         1 BUM       0.104500
      5 CG1         69.1070    33.4530   120.1780 c3         1 BUM      -0.086433
      6 C           66.5260    31.9960   120.6410 c          1 BUM       0.585100
      7 O           65.5560    32.7230   120.8260 o          1 BUM      -0.584100
      8 N           66.4320    31.5030   118.0900 n8         1 BUM      -0.982200
      9 N2          66.9920    31.1600   121.6370 ns         1 BUM      -0.516900
     10 CN2         66.4260    31.0850   122.9850 c3         1 BUM       0.097300
     11 HG21        69.7410    31.9170   117.9400 hc         1 BUM       0.038144
     12 HG22        69.8390    33.6470   117.5650 hc         1 BUM       0.038144
     13 HG23        68.5760    32.6590   116.8230 hc         1 BUM       0.038144
     14 HG31        66.7270    34.6900   119.4500 hc         1 BUM       0.038144
     15 HG32        66.7250    34.2280   117.7370 hc         1 BUM       0.038144
     16 HG33        68.0200    35.2470   118.3800 hc         1 BUM       0.038144
     17 HA          67.9800    31.0350   119.3860 h1         1 BUM       0.010700
     18 HG11        68.5120    33.7700   121.0430 hc         1 BUM       0.038144
     19 HG12        69.8080    34.2650   119.9490 hc         1 BUM       0.038144
     20 HG13        69.6950    32.5750   120.4730 hc         1 BUM       0.038144
     21 HN1         66.0170    30.5780   118.2570 hn         1 BUM       0.401500
     22 HN2         67.0290    31.3570   117.2690 hn         1 BUM       0.401500
     23 H2          67.7830    30.5690   121.4090 hn         1 BUM       0.311500
     24 HN21        66.9870    30.3520   123.5790 h1         1 BUM       0.040700
     25 HN22        65.3740    30.7750   122.9280 h1         1 BUM       0.040700
     26 HN23        66.4910    32.0680   123.4690 h1         1 BUM       0.040700
@<TRIPOS>BOND
     1     1     3 1   
     2     1    11 1   
     3     1    12 1   
     4     1    13 1   
     5     2     3 1   
     6     2    14 1   
     7     2    15 1   
     8     2    16 1   
     9     3     4 1   
    10     3     5 1   
    11     4     6 1   
    12     4     8 1   
    13     4    17 1   
    14     5    18 1   
    15     5    19 1   
    16     5    20 1   
    17     6     7 2   
    18     6     9 1   
    19     8    21 1   
    20     8    22 1   
    21     9    10 1   
    22     9    23 1   
    23    10    24 1   
    24    10    25 1   
    25    10    26 1   
@<TRIPOS>SUBSTRUCTURE
     1 BUM         1 TEMP              0 ****  ****    0 ROOT
