@<TRIPOS>MOLECULE
BUN
   32    33     1     0     0
SMALL
No Charge or Current Charge


@<TRIPOS>ATOM
      1 O2           1.3560    -2.1160    -0.2640 o          1 BUN      -0.601100
      2 C6           1.3660    -0.8920    -0.1790 c          1 BUN       0.614900
      3 C7           2.6900    -0.1570    -0.1830 ca         1 BUN      -0.332600
      4 C12          3.8960    -0.8500     0.0710 ca         1 BUN       0.268100
      5 O4           3.8930    -2.1840     0.3120 oh         1 BUN      -0.550100
      6 C11          5.1240    -0.1810     0.0840 ca         1 BUN      -0.293000
      7 C10          5.1760     1.1900    -0.1700 ca         1 BUN       0.219100
      8 O3           6.3690     1.8420    -0.1620 oh         1 BUN      -0.523100
      9 C9           4.0010     1.8930    -0.4460 ca         1 BUN      -0.211000
     10 C8           2.7640     1.2300    -0.4570 ca         1 BUN       0.017000
     11 C5           0.0750    -0.1470    -0.0730 ce         1 BUN      -0.310200
     12 C4          -1.1590    -0.7300    -0.1360 cf         1 BUN      -0.057200
     13 C3          -2.4970    -0.1090    -0.0300 ca         1 BUN      -0.087800
     14 C2          -3.6450    -0.9280    -0.1170 ca         1 BUN      -0.129000
     15 C1          -4.9310    -0.3670    -0.0200 ca         1 BUN       0.034100
     16 O1          -6.0420    -1.1680    -0.1050 oh         1 BUN      -0.559100
     17 C13         -2.6600     1.2820     0.1560 ca         1 BUN      -0.072000
     18 C14         -3.9460     1.8430     0.2530 ca         1 BUN      -0.133000
     19 C           -5.0780     1.0210     0.1650 ca         1 BUN       0.144100
     20 O           -6.3280     1.5570     0.2590 oh         1 BUN      -0.525100
     21 H3           2.9580    -2.4730     0.1440 ho         1 BUN       0.525000
     22 H4           6.0330    -0.7400     0.2900 ha         1 BUN       0.133000
     23 H5           7.0690     1.1890     0.0450 ho         1 BUN       0.472000
     24 H6           4.0460     2.9580    -0.6580 ha         1 BUN       0.134000
     25 H7           1.8800     1.8130    -0.7030 ha         1 BUN       0.113000
     26 H8           0.1420     0.9210     0.0900 ha         1 BUN       0.185000
     27 H9          -1.1890    -1.8120    -0.2880 ha         1 BUN       0.192000
     28 H10         -3.5330    -2.0000    -0.2600 ha         1 BUN       0.118000
     29 H11         -5.7570    -2.1000    -0.2330 ho         1 BUN       0.477000
     30 H12         -1.7990     1.9400     0.2260 ha         1 BUN       0.119000
     31 H13         -4.0630     2.9150     0.3950 ha         1 BUN       0.135000
     32 H14         -6.9490     0.8000     0.1700 ho         1 BUN       0.486000
@<TRIPOS>BOND
     1     1     2 2   
     2     2     3 1   
     3     2    11 1   
     4     3     4 ar  
     5     3    10 ar  
     6     4     5 1   
     7     4     6 ar  
     8     5    21 1   
     9     6     7 ar  
    10     6    22 1   
    11     7     8 1   
    12     7     9 ar  
    13     8    23 1   
    14     9    10 ar  
    15     9    24 1   
    16    10    25 1   
    17    11    12 2   
    18    11    26 1   
    19    12    13 1   
    20    12    27 1   
    21    13    14 ar  
    22    13    17 ar  
    23    14    15 ar  
    24    14    28 1   
    25    15    16 1   
    26    15    19 ar  
    27    16    29 1   
    28    17    18 ar  
    29    17    30 1   
    30    18    19 ar  
    31    18    31 1   
    32    19    20 1   
    33    20    32 1   
@<TRIPOS>SUBSTRUCTURE
     1 BUN         1 TEMP              0 ****  ****    0 ROOT
