@<TRIPOS>MOLECULE
BUN
   32    33     1     0     0
SMALL
abcg2


@<TRIPOS>ATOM
      1 O2           1.3140    -2.0810    -0.1450 o          1 BUN      -0.601100
      2 C6           1.3360    -0.8420    -0.1400 c          1 BUN       0.614900
      3 C7           2.6150    -0.1340    -0.1420 ca         1 BUN      -0.332600
      4 C12          3.8170    -0.8850    -0.1100 ca         1 BUN       0.268100
      5 O4           3.8170    -2.2090    -0.0960 oh         1 BUN      -0.550100
      6 C11          5.0500    -0.2360    -0.0870 ca         1 BUN      -0.293000
      7 C10          5.1140     1.1460    -0.1030 ca         1 BUN       0.219100
      8 O3           6.2740     1.8130    -0.0760 oh         1 BUN      -0.523100
      9 C9           3.9390     1.9090    -0.1490 ca         1 BUN      -0.211000
     10 C8           2.7290     1.2650    -0.1650 ca         1 BUN       0.017000
     11 C5           0.0800    -0.0870    -0.1180 ce         1 BUN      -0.310200
     12 C4          -1.1060    -0.7130    -0.0880 cf         1 BUN      -0.057200
     13 C3          -2.4200    -0.0990    -0.0490 ca         1 BUN      -0.087800
     14 C2          -3.5440    -0.9310     0.0090 ca         1 BUN      -0.129000
     15 C1          -4.8200    -0.4100     0.0560 ca         1 BUN       0.034100
     16 O1          -5.9520    -1.1540     0.1180 oh         1 BUN      -0.559100
     17 C13         -2.6260     1.2810    -0.0610 ca         1 BUN      -0.072000
     18 C14         -3.9010     1.8100    -0.0160 ca         1 BUN      -0.133000
     19 C           -5.0110     0.9770     0.0440 ca         1 BUN       0.144100
     20 O           -6.2360     1.5190     0.0890 oh         1 BUN      -0.525100
     21 H3           2.8650    -2.4910    -0.1130 ho         1 BUN       0.525000
     22 H4           5.9490    -0.8410    -0.0450 ha         1 BUN       0.133000
     23 H5           7.0150     1.2020    -0.0260 ho         1 BUN       0.472000
     24 H6           3.9980     2.9880    -0.1660 ha         1 BUN       0.134000
     25 H7           1.8420     1.8790    -0.1960 ha         1 BUN       0.113000
     26 H8           0.1230     0.9920    -0.1140 ha         1 BUN       0.185000
     27 H9          -1.0970    -1.7990    -0.0870 ha         1 BUN       0.192000
     28 H10         -3.4050    -2.0080     0.0190 ha         1 BUN       0.118000
     29 H11         -5.7500    -2.0920     0.1260 ho         1 BUN       0.477000
     30 H12         -1.7880     1.9620    -0.1070 ha         1 BUN       0.119000
     31 H13         -4.0530     2.8810    -0.0260 ha         1 BUN       0.135000
     32 H14         -6.9050     0.8280     0.1410 ho         1 BUN       0.486000
@<TRIPOS>BOND
     1     1     2 2   
     2     2     3 1   
     3     2    11 1   
     4     3     4 ar  
     5     3    10 ar  
     6     4     5 1   
     7     4     6 ar  
     8     5    21 1   
     9     6     7 ar  
    10     6    22 1   
    11     7     8 1   
    12     7     9 ar  
    13     8    23 1   
    14     9    10 ar  
    15     9    24 1   
    16    10    25 1   
    17    11    12 2   
    18    11    26 1   
    19    12    13 1   
    20    12    27 1   
    21    13    14 ar  
    22    13    17 ar  
    23    14    15 ar  
    24    14    28 1   
    25    15    16 1   
    26    15    19 ar  
    27    16    29 1   
    28    17    18 ar  
    29    17    30 1   
    30    18    19 ar  
    31    18    31 1   
    32    19    20 1   
    33    20    32 1   
@<TRIPOS>SUBSTRUCTURE
     1 BUN         1 TEMP              0 ****  ****    0 ROOT
