@<TRIPOS>MOLECULE
BUO
   12    11     1     0     0
SMALL
No Charge or Current Charge


@<TRIPOS>ATOM
      1 O1           0.9550    -1.3420     0.6120 o          1 BUO      -0.492100
      2 C1           0.7200    -0.2180     0.1730 c          1 BUO       0.471100
      3 C4           1.8430     0.8130     0.0130 c3         1 BUO      -0.190100
      4 C2          -0.7470     0.2290    -0.2520 c          1 BUO       0.471100
      5 C3          -1.8710    -0.8030    -0.0920 c3         1 BUO      -0.190100
      6 O2          -0.9830     1.3520    -0.6920 o          1 BUO      -0.492100
      7 H1           1.8590     1.1640    -1.0250 hc         1 BUO       0.070367
      8 H2           1.5710     1.7230     0.5600 hc         1 BUO       0.070367
      9 H3           2.8210     0.4290     0.3260 hc         1 BUO       0.070367
     10 H4          -1.5990    -1.7130    -0.6380 hc         1 BUO       0.070367
     11 H5          -1.8870    -1.1530     0.9470 hc         1 BUO       0.070367
     12 H6          -2.8490    -0.4180    -0.4050 hc         1 BUO       0.070367
@<TRIPOS>BOND
     1     1     2 2   
     2     2     3 1   
     3     2     4 1   
     4     3     7 1   
     5     3     8 1   
     6     3     9 1   
     7     4     5 1   
     8     4     6 2   
     9     5    10 1   
    10     5    11 1   
    11     5    12 1   
@<TRIPOS>SUBSTRUCTURE
     1 BUO         1 TEMP              0 ****  ****    0 ROOT
