@<TRIPOS>MOLECULE
BUO
   12    11     1     0     0
SMALL
bcc


@<TRIPOS>ATOM
      1 O1           0.8830    -1.3250     0.5670 o          1 BUO      -0.492100
      2 C1           0.7000    -0.2060     0.1560 c          1 BUO       0.471100
      3 C4           1.7760     0.8200    -0.0020 c3         1 BUO      -0.190100
      4 C2          -0.7280     0.2160    -0.2370 c          1 BUO       0.471100
      5 C3          -1.8040    -0.8090    -0.0760 c3         1 BUO      -0.190100
      6 O2          -0.9100     1.3350    -0.6500 o          1 BUO      -0.492100
      7 H1           1.8570     1.1260    -1.0460 hc         1 BUO       0.070367
      8 H2           1.5360     1.7170     0.5700 hc         1 BUO       0.070367
      9 H3           2.7320     0.4250     0.3300 hc         1 BUO       0.070367
     10 H4          -1.5670    -1.7060    -0.6500 hc         1 BUO       0.070367
     11 H5          -1.8810    -1.1170     0.9680 hc         1 BUO       0.070367
     12 H6          -2.7610    -0.4130    -0.4040 hc         1 BUO       0.070367
@<TRIPOS>BOND
     1     1     2 2   
     2     2     3 1   
     3     2     4 1   
     4     3     7 1   
     5     3     8 1   
     6     3     9 1   
     7     4     5 1   
     8     4     6 2   
     9     5    10 1   
    10     5    11 1   
    11     5    12 1   
@<TRIPOS>SUBSTRUCTURE
     1 BUO         1 TEMP              0 ****  ****    0 ROOT
