@<TRIPOS>MOLECULE
BUQ
   14    13     1     0     0
SMALL
bcc


@<TRIPOS>ATOM
      1 C1          -0.8150    -0.0110     2.3360 c3         1 BUQ      -0.200100
      2 C2           0.1080     0.0630     1.1510 c          1 BUQ       0.572100
      3 O2           1.3110     0.1390     1.2730 o          1 BUQ      -0.524100
      4 C3          -0.5600     0.0460    -0.1990 c3         1 BUQ      -0.192400
      5 C4           0.4020    -0.0150    -1.3670 c3         1 BUQ       0.149400
      6 O5          -0.3620    -0.0230    -2.5540 oh         1 BUQ      -0.605800
      7 H11         -1.3680    -0.9520     2.3180 hc         1 BUQ       0.061700
      8 H12         -0.2690     0.0640     3.2740 hc         1 BUQ       0.061700
      9 H13         -1.5560     0.7890     2.2850 hc         1 BUQ       0.061700
     10 H31         -1.2600    -0.7960    -0.2300 hc         1 BUQ       0.073200
     11 H32         -1.1850     0.9450    -0.2660 hc         1 BUQ       0.073200
     12 H41          1.0810     0.8450    -1.3330 h1         1 BUQ       0.031200
     13 H42          1.0240    -0.9150    -1.2840 h1         1 BUQ       0.031200
     14 HO51         0.2450    -0.0210    -3.2990 ho         1 BUQ       0.407000
@<TRIPOS>BOND
     1     1     2 1   
     2     1     7 1   
     3     1     8 1   
     4     1     9 1   
     5     2     3 2   
     6     2     4 1   
     7     4     5 1   
     8     4    10 1   
     9     4    11 1   
    10     5     6 1   
    11     5    12 1   
    12     5    13 1   
    13     6    14 1   
@<TRIPOS>SUBSTRUCTURE
     1 BUQ         1 TEMP              0 ****  ****    0 ROOT
