@<TRIPOS>MOLECULE
BUQ
   14    13     1     0     0
SMALL
No Charge or Current Charge


@<TRIPOS>ATOM
      1 C1          -0.6120    -0.3910     2.1540 c3         1 BUQ      -0.200100
      2 C2           0.0240     0.6030     1.1840 c          1 BUQ       0.572100
      3 O2           0.9750     1.3010     1.5140 o          1 BUQ      -0.524100
      4 C3          -0.5760     0.6750    -0.2200 c3         1 BUQ      -0.192400
      5 C4           0.2330    -0.1980    -1.1910 c3         1 BUQ       0.172600
      6 O5          -0.3600    -0.1220    -2.4900 oh         1 BUQ      -0.668000
      7 H11         -0.6500    -1.3790     1.6810 hc         1 BUQ       0.061700
      8 H12         -0.1020    -0.4220     3.1240 hc         1 BUQ       0.061700
      9 H13         -1.6740    -0.1470     2.2650 hc         1 BUQ       0.061700
     10 H31         -1.6020     0.2890    -0.2010 hc         1 BUQ       0.073200
     11 H32         -0.5560     1.7130    -0.5730 hc         1 BUQ       0.073200
     12 H41          1.2730     0.1560    -1.2220 h1         1 BUQ       0.031200
     13 H42          0.2390    -1.2370    -0.8320 h1         1 BUQ       0.031200
     14 HO51         0.1850    -0.6840    -3.0870 ho         1 BUQ       0.446000
@<TRIPOS>BOND
     1     1     2 1   
     2     1     7 1   
     3     1     8 1   
     4     1     9 1   
     5     2     3 2   
     6     2     4 1   
     7     4     5 1   
     8     4    10 1   
     9     4    11 1   
    10     5     6 1   
    11     5    12 1   
    12     5    13 1   
    13     6    14 1   
@<TRIPOS>SUBSTRUCTURE
     1 BUQ         1 TEMP              0 ****  ****    0 ROOT
