@<TRIPOS>MOLECULE
BUR
   54    56     1     0     0
SMALL
abcg2


@<TRIPOS>ATOM
      1 FAE         -5.5790    -2.8400     1.4570 f          1 BUR      -0.110333
      2 CBF         -6.2760    -2.3210     0.4430 c3         1 BUR       0.511000
      3 FAF         -5.9400    -3.0130    -0.6480 f          1 BUR      -0.110333
      4 FAG         -7.5640    -2.5190     0.6800 f          1 BUR      -0.110333
      5 OAW         -6.0860    -1.0050     0.3020 os         1 BUR      -0.396100
      6 CAZ         -4.7920    -0.5640     0.0350 ca         1 BUR       0.055100
      7 CAQ         -3.9560    -0.2240     1.0810 ca         1 BUR      -0.068500
      8 CAO         -2.6870     0.2750     0.8270 ca         1 BUR      -0.149500
      9 CAR         -4.3780    -0.4120    -1.2770 ca         1 BUR      -0.068500
     10 CAP         -3.1150     0.0890    -1.5310 ca         1 BUR      -0.149500
     11 CAY         -2.2510     0.4390    -0.4890 ca         1 BUR       0.012000
     12 NAT         -0.9950     0.9160    -0.8540 ns         1 BUR      -0.159000
     13 CAX         -0.0650     1.5380    -0.0650 c          1 BUR       0.664100
     14 OAD         -0.2040     1.7550     1.1240 o          1 BUR      -0.602100
     15 NAU          1.0530     1.9150    -0.7620 ns         1 BUR      -0.160000
     16 CBA          2.1730     2.4460    -0.1050 ca         1 BUR      -0.112000
     17 CAL          2.1470     3.6710     0.5310 ca         1 BUR      -0.031000
     18 CAJ          3.2880     4.1300     1.1810 ca         1 BUR      -0.190000
     19 CAK          4.4160     3.3350     1.1520 ca         1 BUR       0.374900
     20 NAS          4.4590     2.1550     0.5370 nb         1 BUR      -0.726000
     21 CBC          3.3770     1.7270    -0.0620 ca         1 BUR       0.571300
     22 OAV          3.3630     0.5270    -0.6720 os         1 BUR      -0.384400
     23 CBB          4.4940    -0.2580    -0.7070 ca         1 BUR       0.113100
     24 CAM          5.5460     0.1560    -1.5110 ca         1 BUR      -0.111000
     25 CAH          6.6770    -0.6330    -1.6350 ca         1 BUR      -0.103000
     26 CAI          6.7350    -1.8350    -0.9490 ca         1 BUR      -0.110000
     27 CAN          5.6680    -2.2360    -0.1600 ca         1 BUR      -0.106000
     28 CBD          4.5100    -1.4670    -0.0060 ca         1 BUR      -0.052300
     29 CBE          3.3400    -1.9500     0.8600 c3         1 BUR       0.009300
     30 CAC          2.0930    -2.1800    -0.0080 c3         1 BUR      -0.083767
     31 CAA          3.6680    -3.2870     1.5350 c3         1 BUR      -0.083767
     32 CAB          3.0280    -0.9490     1.9840 c3         1 BUR      -0.083767
     33 H1          -4.2870    -0.3310     2.1060 ha         1 BUR       0.135500
     34 H2          -2.0530     0.5280     1.6600 ha         1 BUR       0.136500
     35 H3          -5.0350    -0.6600    -2.1010 ha         1 BUR       0.135500
     36 H4          -2.7970     0.2130    -2.5590 ha         1 BUR       0.136500
     37 H5          -0.8040     0.8790    -1.8430 hn         1 BUR       0.151000
     38 H6           1.1970     1.5540    -1.6930 hn         1 BUR       0.159000
     39 H7           1.2440     4.2670     0.5150 ha         1 BUR       0.136000
     40 H8           3.2960     5.0830     1.6900 ha         1 BUR       0.132000
     41 H9           5.3280     3.6510     1.6460 h4         1 BUR       0.025100
     42 H10          5.4740     1.0950    -2.0450 ha         1 BUR       0.122000
     43 H11          7.4970    -0.3090    -2.2620 ha         1 BUR       0.116000
     44 H12          7.6070    -2.4710    -1.0280 ha         1 BUR       0.115000
     45 H13          5.7530    -3.1830     0.3530 ha         1 BUR       0.117000
     46 H14          2.3020    -2.8970    -0.8050 hc         1 BUR       0.037144
     47 H15          1.2910    -2.5980     0.6040 hc         1 BUR       0.037144
     48 H16          1.7170    -1.2660    -0.4630 hc         1 BUR       0.037144
     49 H17          4.5310    -3.2160     2.1990 hc         1 BUR       0.037144
     50 H18          2.8150    -3.5970     2.1390 hc         1 BUR       0.037144
     51 H19          3.8560    -4.0820     0.8110 hc         1 BUR       0.037144
     52 H20          2.5430    -0.0390     1.6350 hc         1 BUR       0.037144
     53 H21          2.3470    -1.4080     2.7030 hc         1 BUR       0.037144
     54 H22          3.9340    -0.6660     2.5240 hc         1 BUR       0.037144
@<TRIPOS>BOND
     1     1     2 1   
     2     2     3 1   
     3     2     4 1   
     4     2     5 1   
     5     5     6 1   
     6     6     7 ar  
     7     6     9 ar  
     8     7     8 ar  
     9     7    33 1   
    10     8    11 ar  
    11     8    34 1   
    12     9    10 ar  
    13     9    35 1   
    14    10    11 ar  
    15    10    36 1   
    16    11    12 1   
    17    12    13 1   
    18    12    37 1   
    19    13    14 2   
    20    13    15 1   
    21    15    16 1   
    22    15    38 1   
    23    16    17 ar  
    24    16    21 ar  
    25    17    18 ar  
    26    17    39 1   
    27    18    19 ar  
    28    18    40 1   
    29    19    20 ar  
    30    19    41 1   
    31    20    21 ar  
    32    21    22 1   
    33    22    23 1   
    34    23    24 ar  
    35    23    28 ar  
    36    24    25 ar  
    37    24    42 1   
    38    25    26 ar  
    39    25    43 1   
    40    26    27 ar  
    41    26    44 1   
    42    27    28 ar  
    43    27    45 1   
    44    28    29 1   
    45    29    30 1   
    46    29    31 1   
    47    29    32 1   
    48    30    46 1   
    49    30    47 1   
    50    30    48 1   
    51    31    49 1   
    52    31    50 1   
    53    31    51 1   
    54    32    52 1   
    55    32    53 1   
    56    32    54 1   
@<TRIPOS>SUBSTRUCTURE
     1 BUR         1 TEMP              0 ****  ****    0 ROOT
