@<TRIPOS>MOLECULE
BUR
   54    56     1     0     0
SMALL
No Charge or Current Charge


@<TRIPOS>ATOM
      1 FAE         -7.9040     0.8940    -0.8880 f          1 BUR      -0.110333
      2 CBF         -7.8550    -0.3060    -0.2650 c3         1 BUR       0.511000
      3 FAF         -7.8800    -0.0850     1.0700 f          1 BUR      -0.110333
      4 FAG         -8.9980    -0.9560    -0.5760 f          1 BUR      -0.110333
      5 OAW         -6.7050    -1.0810    -0.6650 os         1 BUR      -0.396100
      6 CAZ         -5.3940    -0.6770    -0.4790 ca         1 BUR       0.055100
      7 CAQ         -5.0300     0.5460     0.1280 ca         1 BUR      -0.068500
      8 CAO         -3.6730     0.8860     0.2820 ca         1 BUR      -0.149500
      9 CAR         -4.3830    -1.5440    -0.9250 ca         1 BUR      -0.068500
     10 CAP         -3.0280    -1.2020    -0.7700 ca         1 BUR      -0.149500
     11 CAY         -2.6570     0.0130    -0.1660 ca         1 BUR       0.012000
     12 NAT         -1.2670     0.2890    -0.0450 ns         1 BUR      -0.159000
     13 CAX         -0.5690     1.3570     0.5000 c          1 BUR       0.664100
     14 OAD         -1.0930     2.3340     1.0230 o          1 BUR      -0.602100
     15 NAU          0.8020     1.1800     0.3840 ns         1 BUR      -0.160000
     16 CBA          1.9190     1.9810     0.7820 ca         1 BUR      -0.112000
     17 CAL          1.7870     3.2460     1.3930 ca         1 BUR      -0.031000
     18 CAJ          2.9540     3.9390     1.7490 ca         1 BUR      -0.190000
     19 CAK          4.2040     3.3600     1.4940 ca         1 BUR       0.374900
     20 NAS          4.3460     2.1530     0.9090 nb         1 BUR      -0.726000
     21 CBC          3.2250     1.4840     0.5520 ca         1 BUR       0.571300
     22 OAV          3.3390     0.2360    -0.0240 os         1 BUR      -0.384400
     23 CBB          4.4700    -0.2020    -0.6770 ca         1 BUR       0.113100
     24 CAM          4.9800     0.5940    -1.7230 ca         1 BUR      -0.111000
     25 CAH          6.1090     0.1900    -2.4430 ca         1 BUR      -0.103000
     26 CAI          6.7290    -1.0240    -2.1280 ca         1 BUR      -0.110000
     27 CAN          6.2190    -1.8350    -1.1010 ca         1 BUR      -0.106000
     28 CBD          5.0720    -1.4550    -0.3490 ca         1 BUR      -0.052300
     29 CBE          4.5070    -2.3760     0.7860 c3         1 BUR       0.009300
     30 CAC          3.0520    -2.8110     0.4520 c3         1 BUR      -0.083767
     31 CAA          5.3330    -3.6840     0.9700 c3         1 BUR      -0.083767
     32 CAB          4.5390    -1.6330     2.1520 c3         1 BUR      -0.083767
     33 H1          -5.7780     1.2470     0.4860 ha         1 BUR       0.135500
     34 H2          -3.4370     1.8350     0.7520 ha         1 BUR       0.136500
     35 H3          -4.6520    -2.4880    -1.3940 ha         1 BUR       0.135500
     36 H4          -2.2630    -1.8910    -1.1240 ha         1 BUR       0.136500
     37 H5          -0.6780    -0.4350    -0.4330 hn         1 BUR       0.151000
     38 H6           1.0710     0.3150    -0.0690 hn         1 BUR       0.159000
     39 H7           0.8210     3.6980     1.5960 ha         1 BUR       0.136000
     40 H8           2.8970     4.9150     2.2220 ha         1 BUR       0.132000
     41 H9           5.1230     3.8790     1.7660 h4         1 BUR       0.025100
     42 H10          4.4950     1.5330    -1.9760 ha         1 BUR       0.122000
     43 H11          6.5010     0.8130    -3.2450 ha         1 BUR       0.116000
     44 H12          7.6070    -1.3440    -2.6850 ha         1 BUR       0.115000
     45 H13          6.7430    -2.7670    -0.9130 ha         1 BUR       0.117000
     46 H14          3.0080    -3.2840    -0.5370 hc         1 BUR       0.037144
     47 H15          2.6810    -3.5350     1.1880 hc         1 BUR       0.037144
     48 H16          2.3530    -1.9690     0.4540 hc         1 BUR       0.037144
     49 H17          6.3720    -3.4630     1.2430 hc         1 BUR       0.037144
     50 H18          4.9130    -4.3060     1.7710 hc         1 BUR       0.037144
     51 H19          5.3300    -4.2890     0.0550 hc         1 BUR       0.037144
     52 H20          3.8460    -0.7870     2.1830 hc         1 BUR       0.037144
     53 H21          4.2560    -2.3060     2.9710 hc         1 BUR       0.037144
     54 H22          5.5470    -1.2530     2.3610 hc         1 BUR       0.037144
@<TRIPOS>BOND
     1     1     2 1   
     2     2     3 1   
     3     2     4 1   
     4     2     5 1   
     5     5     6 1   
     6     6     7 ar  
     7     6     9 ar  
     8     7     8 ar  
     9     7    33 1   
    10     8    11 ar  
    11     8    34 1   
    12     9    10 ar  
    13     9    35 1   
    14    10    11 ar  
    15    10    36 1   
    16    11    12 1   
    17    12    13 1   
    18    12    37 1   
    19    13    14 2   
    20    13    15 1   
    21    15    16 1   
    22    15    38 1   
    23    16    17 ar  
    24    16    21 ar  
    25    17    18 ar  
    26    17    39 1   
    27    18    19 ar  
    28    18    40 1   
    29    19    20 ar  
    30    19    41 1   
    31    20    21 ar  
    32    21    22 1   
    33    22    23 1   
    34    23    24 ar  
    35    23    28 ar  
    36    24    25 ar  
    37    24    42 1   
    38    25    26 ar  
    39    25    43 1   
    40    26    27 ar  
    41    26    44 1   
    42    27    28 ar  
    43    27    45 1   
    44    28    29 1   
    45    29    30 1   
    46    29    31 1   
    47    29    32 1   
    48    30    46 1   
    49    30    47 1   
    50    30    48 1   
    51    31    49 1   
    52    31    50 1   
    53    31    51 1   
    54    32    52 1   
    55    32    53 1   
    56    32    54 1   
@<TRIPOS>SUBSTRUCTURE
     1 BUR         1 TEMP              0 ****  ****    0 ROOT
