@<TRIPOS>MOLECULE
BUT
   14    13     1     0     0
SMALL
No Charge or Current Charge


@<TRIPOS>ATOM
      1 C1           1.9890    -0.1130    -0.0150 c3         1 BUT      -0.089100
      2 C2           0.5980     0.5490     0.0060 c3         1 BUT      -0.076400
      3 C3          -0.5590    -0.4740    -0.0140 c3         1 BUT      -0.076400
      4 C4          -1.9510     0.1870     0.0070 c3         1 BUT      -0.089100
      5 H11          2.1240    -0.7620     0.8590 hc         1 BUT       0.030867
      6 H12          2.1170    -0.7190    -0.9200 hc         1 BUT       0.030867
      7 H13          2.7760     0.6510     0.0010 hc         1 BUT       0.030867
      8 H21          0.5140     1.1740     0.9040 hc         1 BUT       0.036450
      9 H22          0.5070     1.2170    -0.8590 hc         1 BUT       0.036450
     10 H31         -0.4750    -1.1000    -0.9120 hc         1 BUT       0.036450
     11 H32         -0.4690    -1.1430     0.8510 hc         1 BUT       0.036450
     12 H41         -2.0790     0.7930     0.9120 hc         1 BUT       0.030867
     13 H42         -2.0850     0.8360    -0.8670 hc         1 BUT       0.030867
     14 H43         -2.7370    -0.5770    -0.0090 hc         1 BUT       0.030867
@<TRIPOS>BOND
     1     1     2 1   
     2     1     5 1   
     3     1     6 1   
     4     1     7 1   
     5     2     3 1   
     6     2     8 1   
     7     2     9 1   
     8     3     4 1   
     9     3    10 1   
    10     3    11 1   
    11     4    12 1   
    12     4    13 1   
    13     4    14 1   
@<TRIPOS>SUBSTRUCTURE
     1 BUT         1 TEMP              0 ****  ****    0 ROOT
