@<TRIPOS>MOLECULE
BUT
   14    13     1     0     0
SMALL
bcc


@<TRIPOS>ATOM
      1 C1           1.9640    -0.1070    -0.0150 c3         1 BUT      -0.089100
      2 C2           0.5880     0.5440     0.0050 c3         1 BUT      -0.076400
      3 C3          -0.5490    -0.4700    -0.0140 c3         1 BUT      -0.076400
      4 C4          -1.9250     0.1810     0.0070 c3         1 BUT      -0.089100
      5 H11          2.1030    -0.7600     0.8500 hc         1 BUT       0.030867
      6 H12          2.0970    -0.7170    -0.9100 hc         1 BUT       0.030867
      7 H13          2.7620     0.6360     0.0010 hc         1 BUT       0.030867
      8 H21          0.4930     1.1760     0.8940 hc         1 BUT       0.036450
      9 H22          0.4860     1.2160    -0.8530 hc         1 BUT       0.036450
     10 H31         -0.4550    -1.1010    -0.9030 hc         1 BUT       0.036450
     11 H32         -0.4480    -1.1420     0.8440 hc         1 BUT       0.036450
     12 H41         -2.0590     0.7890     0.9040 hc         1 BUT       0.030867
     13 H42         -2.0640     0.8370    -0.8560 hc         1 BUT       0.030867
     14 H43         -2.7230    -0.5620    -0.0110 hc         1 BUT       0.030867
@<TRIPOS>BOND
     1     1     2 1   
     2     1     5 1   
     3     1     6 1   
     4     1     7 1   
     5     2     3 1   
     6     2     8 1   
     7     2     9 1   
     8     3     4 1   
     9     3    10 1   
    10     3    11 1   
    11     4    12 1   
    12     4    13 1   
    13     4    14 1   
@<TRIPOS>SUBSTRUCTURE
     1 BUT         1 TEMP              0 ****  ****    0 ROOT
