@<TRIPOS>MOLECULE
BUU
   39    40     1     0     0
SMALL
bcc


@<TRIPOS>ATOM
      1 O1          -6.2090     1.6080     0.5000 o          1 BUU      -0.832800
      2 C           -5.0050     1.8710     0.3150 c          1 BUU       0.934600
      3 O           -4.5340     2.9480    -0.1030 o          1 BUU      -0.832800
      4 C1          -3.9860     0.7390     0.5680 c3         1 BUU       0.027500
      5 N           -4.5260    -0.2580     1.4720 n8         1 BUU      -0.874800
      6 C2          -3.5430     0.1870    -0.8070 c3         1 BUU      -0.072100
      7 C3          -2.5120    -0.8970    -0.6960 ca         1 BUU      -0.044300
      8 C4          -2.8560    -2.2390    -0.7580 ca         1 BUU      -0.136000
      9 C5          -1.8930    -3.2340    -0.6150 ca         1 BUU      -0.142000
     10 C6          -0.5690    -2.9040    -0.3990 ca         1 BUU       0.091100
     11 O2           0.3480    -3.8870    -0.2700 oh         1 BUU      -0.509100
     12 C8          -1.1730    -0.5640    -0.4720 ca         1 BUU      -0.164000
     13 C7          -0.2100    -1.5480    -0.3230 ca         1 BUU       0.039100
     14 O3           1.1110    -1.3280    -0.1090 os         1 BUU      -0.367900
     15 C9           1.5730     0.0020    -0.0750 c3         1 BUU       0.188700
     16 C10          3.0610    -0.0210     0.1710 ca         1 BUU      -0.007300
     17 C15          3.9070     1.0630    -0.0930 ca         1 BUU      -0.171200
     18 N1           3.3800     2.3230    -0.5920 no         1 BUU       0.308200
     19 O4           4.1020     3.0130    -1.2700 o          1 BUU      -0.204000
     20 O5           2.2480     2.6250    -0.2890 o          1 BUU      -0.204000
     21 C11          3.6660    -1.1680     0.6780 ca         1 BUU      -0.121000
     22 C12          5.0320    -1.2300     0.9110 ca         1 BUU      -0.094000
     23 C13          5.8450    -0.1430     0.6290 ca         1 BUU      -0.142000
     24 C14          5.2790     1.0080     0.1160 ca         1 BUU      -0.074000
     25 H1          -3.0990     1.1770     1.0390 h1         1 BUU       0.044700
     26 HN1         -5.4170    -0.5790     1.1130 hn         1 BUU       0.321800
     27 HN2         -3.9170    -1.0670     1.5080 hn         1 BUU       0.321800
     28 H22         -4.4240    -0.1960    -1.3330 hc         1 BUU       0.057700
     29 H21         -3.1520     1.0140    -1.4040 hc         1 BUU       0.057700
     30 H4          -3.8850    -2.5240    -0.9390 ha         1 BUU       0.136000
     31 H5          -2.1720    -4.2790    -0.6780 ha         1 BUU       0.135000
     32 HO2          1.2350    -3.5120    -0.2180 ho         1 BUU       0.427000
     33 H8          -0.9000     0.4830    -0.4170 ha         1 BUU       0.150000
     34 H92          1.3340     0.4980    -1.0200 h1         1 BUU       0.075700
     35 H91          1.0760     0.5570     0.7280 h1         1 BUU       0.075700
     36 H11          3.0650    -2.0360     0.9020 ha         1 BUU       0.158000
     37 H12          5.4580    -2.1380     1.3140 ha         1 BUU       0.138000
     38 H13          6.9100    -0.1870     0.8090 ha         1 BUU       0.140000
     39 H14          5.9000     1.8650    -0.1030 ha         1 BUU       0.163000
@<TRIPOS>BOND
     1     1     2 1   
     2     2     3 1   
     3     2     4 1   
     4     4     5 1   
     5     4     6 1   
     6     4    25 1   
     7     5    26 1   
     8     5    27 1   
     9     6     7 1   
    10     6    28 1   
    11     6    29 1   
    12     7     8 ar  
    13     7    12 ar  
    14     8     9 ar  
    15     8    30 1   
    16     9    10 ar  
    17     9    31 1   
    18    10    11 1   
    19    10    13 ar  
    20    11    32 1   
    21    12    13 ar  
    22    12    33 1   
    23    13    14 1   
    24    14    15 1   
    25    15    16 1   
    26    15    34 1   
    27    15    35 1   
    28    16    17 ar  
    29    16    21 ar  
    30    17    18 1   
    31    17    24 ar  
    32    18    19 1   
    33    18    20 1   
    34    21    22 ar  
    35    21    36 1   
    36    22    23 ar  
    37    22    37 1   
    38    23    24 ar  
    39    23    38 1   
    40    24    39 1   
@<TRIPOS>SUBSTRUCTURE
     1 BUU         1 TEMP              0 ****  ****    0 ROOT
