@<TRIPOS>MOLECULE
BUU
   39    40     1     0     0
SMALL
No Charge or Current Charge


@<TRIPOS>ATOM
      1 O1          -6.1300     1.7590     0.1230 o          1 BUU      -0.727500
      2 C           -4.9720     1.9830     0.4560 c          1 BUU       0.724000
      3 O           -4.5640     3.1030     0.7380 o          1 BUU      -0.727500
      4 C1          -3.9770     0.7580     0.6140 c3         1 BUU       0.027500
      5 N           -4.3770    -0.3170     1.5940 n8         1 BUU      -0.985200
      6 C2          -3.6590     0.1270    -0.7670 c3         1 BUU      -0.072100
      7 C3          -2.5830    -0.9570    -0.7160 ca         1 BUU      -0.044300
      8 C4          -2.9230    -2.3080    -0.9240 ca         1 BUU      -0.118000
      9 C5          -1.9330    -3.3040    -0.8800 ca         1 BUU      -0.124000
     10 C6          -0.5970    -2.9530    -0.6310 ca         1 BUU       0.091100
     11 O2           0.3670    -3.9180    -0.5920 oh         1 BUU      -0.548100
     12 C8          -1.2400    -0.6070    -0.4690 ca         1 BUU      -0.146000
     13 C7          -0.2400    -1.6060    -0.4240 ca         1 BUU       0.039100
     14 O3           1.0920    -1.3150    -0.1820 os         1 BUU      -0.391100
     15 C9           1.5640     0.0350     0.0130 c3         1 BUU       0.211900
     16 C10          3.0800     0.0280     0.2750 ca         1 BUU      -0.007300
     17 C15          3.9460     1.0480    -0.2160 ca         1 BUU      -0.171200
     18 N1           3.4320     2.2300    -0.9710 no         1 BUU       0.688200
     19 O4           4.1120     2.6490    -1.9170 o          1 BUU      -0.394000
     20 O5           2.4510     2.8290    -0.5130 o          1 BUU      -0.394000
     21 C11          3.6370    -1.0300     1.0290 ca         1 BUU      -0.103000
     22 C12          5.0190    -1.1000     1.2690 ca         1 BUU      -0.076000
     23 C13          5.8690    -0.1090     0.7600 ca         1 BUU      -0.124000
     24 C14          5.3370     0.9610     0.0240 ca         1 BUU      -0.056000
     25 H1          -3.0350     1.1820     0.9900 h1         1 BUU       0.044700
     26 HN1         -5.2970    -0.6810     1.3210 hn         1 BUU       0.377000
     27 HN2         -3.7480    -1.1190     1.4690 hn         1 BUU       0.377000
     28 H22         -4.5840    -0.2710    -1.2030 hc         1 BUU       0.057700
     29 H21         -3.3320     0.9240    -1.4460 hc         1 BUU       0.057700
     30 H4          -3.9560    -2.5890    -1.1190 ha         1 BUU       0.118000
     31 H5          -2.2010    -4.3450    -1.0410 ha         1 BUU       0.117000
     32 HO2          1.2130    -3.4490    -0.4190 ho         1 BUU       0.466000
     33 H8          -0.9950     0.4400    -0.3150 ha         1 BUU       0.132000
     34 H92          1.3370     0.6270    -0.8820 h1         1 BUU       0.075700
     35 H91          1.0610     0.5020     0.8700 h1         1 BUU       0.075700
     36 H11          2.9960    -1.8100     1.4320 ha         1 BUU       0.140000
     37 H12          5.4290    -1.9250     1.8470 ha         1 BUU       0.120000
     38 H13          6.9400    -0.1640     0.9440 ha         1 BUU       0.122000
     39 H14          6.0110     1.7310    -0.3490 ha         1 BUU       0.145000
@<TRIPOS>BOND
     1     1     2 1   
     2     2     3 1   
     3     2     4 1   
     4     4     5 1   
     5     4     6 1   
     6     4    25 1   
     7     5    26 1   
     8     5    27 1   
     9     6     7 1   
    10     6    28 1   
    11     6    29 1   
    12     7     8 ar  
    13     7    12 ar  
    14     8     9 ar  
    15     8    30 1   
    16     9    10 ar  
    17     9    31 1   
    18    10    11 1   
    19    10    13 ar  
    20    11    32 1   
    21    12    13 ar  
    22    12    33 1   
    23    13    14 1   
    24    14    15 1   
    25    15    16 1   
    26    15    34 1   
    27    15    35 1   
    28    16    17 ar  
    29    16    21 ar  
    30    17    18 1   
    31    17    24 ar  
    32    18    19 1   
    33    18    20 1   
    34    21    22 ar  
    35    21    36 1   
    36    22    23 ar  
    37    22    37 1   
    38    23    24 ar  
    39    23    38 1   
    40    24    39 1   
@<TRIPOS>SUBSTRUCTURE
     1 BUU         1 TEMP              0 ****  ****    0 ROOT
