@<TRIPOS>MOLECULE
BUV
   61    65     1     0     0
SMALL
No Charge or Current Charge


@<TRIPOS>ATOM
      1 N14         -4.2300     3.7810     0.1130 nc         1 BUV      -0.174800
      2 C18          0.9570    -1.6850     0.0430 c5         1 BUV       0.027700
      3 C15         -1.3090    -0.5270     0.1480 c          1 BUV       0.607300
      4 C19          1.4080    -2.8590    -0.8850 c5         1 BUV      -0.028400
      5 C20          0.1470    -3.7610    -0.9260 c5         1 BUV      -0.089400
      6 C21         -0.9660    -2.7070    -1.1520 c5         1 BUV       0.111000
      7 C22          1.8320    -0.4380    -0.3090 c          1 BUV       0.608100
      8 C23          2.5690    -3.6120    -0.2190 ca         1 BUV      -0.082300
      9 C24          3.7900    -3.7360    -0.9150 ca         1 BUV      -0.099500
     10 C11         -5.5210     3.3730     1.9190 cc         1 BUV       0.385400
     11 C34          6.5060     1.8910     0.7700 ca         1 BUV      -0.146600
     12 C27          3.5770    -4.8110     1.6660 ca         1 BUV      -0.108500
     13 C33          5.3800     2.3780     0.0660 ca         1 BUV      -0.069000
     14 Cl1         -7.8310    -1.3710    -2.4240 cl         1 BUV      -0.191000
     15 C2          -7.0780     2.0720    -0.4400 ca         1 BUV      -0.098000
     16 C3          -7.7220     1.0640    -1.1730 ca         1 BUV      -0.097000
     17 C4          -7.0250    -0.1030    -1.5100 ca         1 BUV       0.126000
     18 C5          -5.6890    -0.2660    -1.1170 ca         1 BUV      -0.094000
     19 C6          -5.0200     0.7370    -0.3790 ca         1 BUV      -0.012800
     20 C7          -5.7340     1.9210    -0.0400 ca         1 BUV       0.008800
     21 N8          -5.1400     2.9600     0.6770 na         1 BUV      -0.004500
     22 C10         -2.7160    -0.4250    -0.3560 ce         1 BUV      -0.242200
     23 N12         -4.7940     4.4480     2.1710 nd         1 BUV      -0.377000
     24 N13         -4.0100     4.6680     1.0500 nd         1 BUV      -0.025000
     25 O16         -0.8720     0.2840     0.9550 o          1 BUV      -0.580100
     26 N17         -0.4910    -1.5820    -0.3130 n          1 BUV      -0.399800
     27 C25          4.8890    -4.3890    -0.3320 ca         1 BUV      -0.108500
     28 C26          4.7840    -4.9270     0.9600 ca         1 BUV      -0.106000
     29 C28          2.4770    -4.1580     1.0830 ca         1 BUV      -0.099500
     30 O29          1.5530     0.4570    -1.1040 o          1 BUV      -0.585100
     31 N30          3.0080    -0.5260     0.4300 ns         1 BUV      -0.120000
     32 C31          4.1510     0.3140     0.5150 ca         1 BUV      -0.067000
     33 C32          4.2160     1.5990    -0.0590 ca         1 BUV      -0.171500
     34 C35          6.4310     0.6030     1.3460 ca         1 BUV      -0.069000
     35 C36          5.2650    -0.1720     1.2200 ca         1 BUV      -0.171500
     36 O38          8.7130     2.2740     1.5260 o          1 BUV      -0.723000
     37 O39          7.7870     3.8410     0.3880 o          1 BUV      -0.723000
     38 H46          1.0610    -1.9130     1.1110 h1         1 BUV       0.065700
     39 H47          1.6540    -2.5020    -1.8940 hc         1 BUV       0.081700
     40 H48          0.1850    -4.5080    -1.7270 hc         1 BUV       0.054200
     41 H49         -0.0250    -4.2970     0.0130 hc         1 BUV       0.054200
     42 H51         -1.0310    -2.4040    -2.2060 h1         1 BUV       0.045700
     43 H50         -1.9430    -3.0910    -0.8320 h1         1 BUV       0.045700
     44 H52          3.8920    -3.3200    -1.9150 ha         1 BUV       0.114000
     45 H45         -6.2660     2.8900     2.5380 h5         1 BUV       0.072100
     46 H55          3.4920    -5.2260     2.6680 ha         1 BUV       0.113000
     47 H59          5.4030     3.3670    -0.3870 ha         1 BUV       0.128000
     48 H40         -7.6250     2.9790    -0.1880 ha         1 BUV       0.132000
     49 H41         -8.7580     1.1870    -1.4800 ha         1 BUV       0.136000
     50 H42         -5.1860    -1.1900    -1.3830 ha         1 BUV       0.138000
     51 H43         -3.2450     1.2490     0.7800 ha         1 BUV       0.218000
     52 H44         -3.0200    -1.1530    -1.0980 ha         1 BUV       0.179000
     53 H53          5.8240    -4.4750    -0.8820 ha         1 BUV       0.113000
     54 H54          5.6350    -5.4320     1.4120 ha         1 BUV       0.111000
     55 H56          1.5560    -4.0760     1.6550 ha         1 BUV       0.114000
     56 H57          3.0730    -1.3570     1.0040 hn         1 BUV       0.140000
     57 H58          3.3740     2.0180    -0.6000 ha         1 BUV       0.103000
     58 H60          7.2770     0.1960     1.8960 ha         1 BUV       0.128000
     59 H61          5.2330    -1.1620     1.6710 ha         1 BUV       0.103000
     60 C9          -3.6090     0.5330     0.0400 cf         1 BUV      -0.115200
     61 C37          7.7650     2.7330     0.9050 c          1 BUV       0.714600
@<TRIPOS>BOND
     1     1    21 1   
     2     1    24 2   
     3     2     4 1   
     4     2     7 1   
     5     2    26 1   
     6     2    38 1   
     7     3    22 1   
     8     3    25 2   
     9     3    26 1   
    10     4     5 1   
    11     4     8 1   
    12     4    39 1   
    13     5     6 1   
    14     5    40 1   
    15     5    41 1   
    16     6    26 1   
    17     6    42 1   
    18     6    43 1   
    19     7    30 2   
    20     7    31 1   
    21     8     9 ar  
    22     8    29 ar  
    23     9    27 ar  
    24     9    44 1   
    25    10    21 1   
    26    10    23 2   
    27    10    45 1   
    28    11    13 ar  
    29    11    34 ar  
    30    11    61 1   
    31    12    28 ar  
    32    12    29 ar  
    33    12    46 1   
    34    13    33 ar  
    35    13    47 1   
    36    14    17 1   
    37    15    16 ar  
    38    15    20 ar  
    39    15    48 1   
    40    16    17 ar  
    41    16    49 1   
    42    17    18 ar  
    43    18    19 ar  
    44    18    50 1   
    45    19    20 ar  
    46    19    60 1   
    47    20    21 1   
    48    22    52 1   
    49    22    60 2   
    50    23    24 1   
    51    27    28 ar  
    52    27    53 1   
    53    28    54 1   
    54    29    55 1   
    55    31    32 1   
    56    31    56 1   
    57    32    33 ar  
    58    32    35 ar  
    59    33    57 1   
    60    34    35 ar  
    61    34    58 1   
    62    35    59 1   
    63    36    61 1   
    64    37    61 1   
    65    51    60 1   
@<TRIPOS>SUBSTRUCTURE
     1 BUV         1 TEMP              0 ****  ****    0 ROOT
