@<TRIPOS>MOLECULE
BUV
   61    65     1     0     0
SMALL
bcc


@<TRIPOS>ATOM
      1 N14         -3.4170     3.3900    -0.1000 nc         1 BUV      -0.174800
      2 C18          0.8990    -1.9110    -0.0010 c5         1 BUV       0.027700
      3 C15         -1.1910    -0.7260     0.1770 c          1 BUV       0.674300
      4 C19          1.3830    -3.0350    -0.9400 c5         1 BUV      -0.028400
      5 C20          0.1010    -3.8340    -1.1770 c5         1 BUV      -0.089400
      6 C21         -0.9580    -2.7500    -1.3060 c5         1 BUV       0.111000
      7 C22          1.7290    -0.6540    -0.2280 c          1 BUV       0.675100
      8 C23          2.5600    -3.7980    -0.4020 ca         1 BUV      -0.082300
      9 C24          3.7870    -3.7420    -1.0540 ca         1 BUV      -0.117500
     10 C11         -4.7800     3.7980     1.5250 cc         1 BUV       0.385400
     11 C34          5.8890     2.2680     0.9600 ca         1 BUV      -0.146600
     12 C27          3.5550    -5.2420     1.2610 ca         1 BUV      -0.126500
     13 C33          4.9350     2.4000    -0.0430 ca         1 BUV      -0.087000
     14 CL1         -7.8320    -1.4090    -1.6240 cl         1 BUV      -0.099400
     15 C2          -6.6360     2.1630    -0.3590 ca         1 BUV      -0.116000
     16 C3          -7.4250     1.1390    -0.8530 ca         1 BUV      -0.115000
     17 C4          -6.8640    -0.1190    -1.0070 ca         1 BUV       0.034400
     18 C5          -5.5470    -0.3700    -0.6660 ca         1 BUV      -0.111000
     19 C6          -4.7440     0.6490    -0.1550 ca         1 BUV      -0.012800
     20 C7          -5.3180     1.9150    -0.0110 ca         1 BUV       0.008800
     21 N8          -4.5440     2.9900     0.4860 na         1 BUV      -0.004500
     22 C10         -2.5760    -0.5330    -0.3160 ce         1 BUV      -0.192200
     23 N12         -3.8160     4.6750     1.5810 nd         1 BUV      -0.377000
     24 N13         -2.9980     4.3890     0.5650 nd         1 BUV      -0.025000
     25 O16         -0.7020    -0.0090     1.0440 o          1 BUV      -0.580100
     26 N17         -0.4810    -1.7200    -0.3850 n          1 BUV      -0.466800
     27 C25          4.8890    -4.4290    -0.5610 ca         1 BUV      -0.126500
     28 C26          4.7760    -5.1820     0.5990 ca         1 BUV      -0.124000
     29 C28          2.4580    -4.5550     0.7650 ca         1 BUV      -0.117500
     30 O29          1.5280     0.0740    -1.1790 o          1 BUV      -0.585100
     31 N30          2.7320    -0.5080     0.6670 ns         1 BUV      -0.446100
     32 C31          3.7560     0.4440     0.7080 ca         1 BUV       0.025600
     33 C32          3.8770     1.5130    -0.1810 ca         1 BUV      -0.189500
     34 C35          5.7530     1.1970     1.8400 ca         1 BUV      -0.087000
     35 C36          4.7090     0.2990     1.7190 ca         1 BUV      -0.189500
     36 O38          7.8220     3.0750     2.0440 o          1 BUV      -0.828300
     37 O39          7.0920     4.1660     0.2430 o          1 BUV      -0.828300
     38 H46          0.9630    -2.2350     1.0450 h1         1 BUV       0.065700
     39 H47          1.6690    -2.5810    -1.8940 hc         1 BUV       0.081700
     40 H48          0.1620    -4.4610    -2.0640 hc         1 BUV       0.054200
     41 H49         -0.1190    -4.4780    -0.3220 hc         1 BUV       0.054200
     42 H51         -1.0090    -2.3660    -2.3280 h1         1 BUV       0.045700
     43 H50         -1.9470    -3.1100    -1.0240 h1         1 BUV       0.045700
     44 H52          3.8820    -3.1530    -1.9590 ha         1 BUV       0.132000
     45 H45         -5.6230     3.7080     2.1890 h5         1 BUV       0.072100
     46 H55          3.4580    -5.8280     2.1670 ha         1 BUV       0.131000
     47 H59          5.0150     3.2240    -0.7400 ha         1 BUV       0.146000
     48 H40         -7.0460     3.1580    -0.2550 ha         1 BUV       0.150000
     49 H41         -8.4550     1.3270    -1.1220 ha         1 BUV       0.154000
     50 H42         -5.1480    -1.3700    -0.7640 ha         1 BUV       0.156000
     51 H43         -2.9580     0.9820     1.0590 ha         1 BUV       0.168000
     52 H44         -2.9250    -1.1170    -1.1580 ha         1 BUV       0.129000
     53 H53          5.8350    -4.3730    -1.0830 ha         1 BUV       0.131000
     54 H54          5.6310    -5.7210     0.9850 ha         1 BUV       0.129000
     55 H56          1.5130    -4.6140     1.2940 ha         1 BUV       0.132000
     56 H57          2.7650    -1.1890     1.4110 hn         1 BUV       0.306500
     57 H58          3.1600     1.6600    -0.9720 ha         1 BUV       0.121000
     58 H60          6.4760     1.0630     2.6340 ha         1 BUV       0.146000
     59 H61          4.6290    -0.5280     2.4170 ha         1 BUV       0.121000
     60 C9          -3.3610     0.3880     0.2460 cf         1 BUV      -0.065200
     61 C37          7.0360     3.2570     1.0940 c          1 BUV       0.925200
@<TRIPOS>BOND
     1     1    21 1   
     2     1    24 2   
     3     2     4 1   
     4     2     7 1   
     5     2    26 1   
     6     2    38 1   
     7     3    22 1   
     8     3    25 2   
     9     3    26 1   
    10     4     5 1   
    11     4     8 1   
    12     4    39 1   
    13     5     6 1   
    14     5    40 1   
    15     5    41 1   
    16     6    26 1   
    17     6    42 1   
    18     6    43 1   
    19     7    30 2   
    20     7    31 1   
    21     8     9 ar  
    22     8    29 ar  
    23     9    27 ar  
    24     9    44 1   
    25    10    21 1   
    26    10    23 2   
    27    10    45 1   
    28    11    13 ar  
    29    11    34 ar  
    30    11    61 1   
    31    12    28 ar  
    32    12    29 ar  
    33    12    46 1   
    34    13    33 ar  
    35    13    47 1   
    36    14    17 1   
    37    15    16 ar  
    38    15    20 ar  
    39    15    48 1   
    40    16    17 ar  
    41    16    49 1   
    42    17    18 ar  
    43    18    19 ar  
    44    18    50 1   
    45    19    20 ar  
    46    19    60 1   
    47    20    21 1   
    48    22    52 1   
    49    22    60 2   
    50    23    24 1   
    51    27    28 ar  
    52    27    53 1   
    53    28    54 1   
    54    29    55 1   
    55    31    32 1   
    56    31    56 1   
    57    32    33 ar  
    58    32    35 ar  
    59    33    57 1   
    60    34    35 ar  
    61    34    58 1   
    62    35    59 1   
    63    36    61 1   
    64    37    61 1   
    65    51    60 1   
@<TRIPOS>SUBSTRUCTURE
     1 BUV         1 TEMP              0 ****  ****    0 ROOT
