@<TRIPOS>MOLECULE
BUW
   46    48     1     0     0
SMALL
abcg2


@<TRIPOS>ATOM
      1 C01         -0.8870     1.2420    -0.1000 ca         1 BUW       0.042500
      2 C02         -0.0060     2.3120     0.0940 ca         1 BUW      -0.168500
      3 C03         -0.4620     3.5980     0.3500 ca         1 BUW      -0.074500
      4 C04         -1.8150     3.8640     0.4480 ca         1 BUW      -0.138500
      5 C05         -2.7080     2.8240     0.2360 ca         1 BUW      -0.057500
      6 C06         -2.2560     1.5480    -0.0680 ca         1 BUW      -0.137500
      7 C08         -2.6300    -1.1070    -0.1190 ca         1 BUW      -0.137500
      8 C09         -3.4200    -2.2170     0.1420 ca         1 BUW      -0.057500
      9 C10         -2.8500    -3.4670     0.3310 ca         1 BUW      -0.138500
     10 C11         -1.4730    -3.5790     0.2610 ca         1 BUW      -0.074500
     11 C12         -0.6790    -2.4620     0.0450 ca         1 BUW      -0.168500
     12 C13         -1.2290    -1.1890    -0.1360 ca         1 BUW       0.042500
     13 N14         -0.4250    -0.0590    -0.3380 na         1 BUW      -0.094000
     14 S07         -3.4460     0.3720    -0.6000 ss         1 BUW       0.024000
     15 C15          0.9870    -0.2380    -0.6650 c3         1 BUW       0.043600
     16 C16          2.0160    -0.1950     0.4950 c3         1 BUW       0.176500
     17 C17          1.8220    -1.2290     1.5990 c3         1 BUW      -0.086100
     18 C20          5.1540    -1.8550    -0.5880 c3         1 BUW      -0.093100
     19 C22          4.0980     2.1020     0.4730 c3         1 BUW      -0.093100
     20 N18          3.3840    -0.2360    -0.0050 n3         1 BUW      -0.761600
     21 H1           1.0600     2.1710     0.0360 ha         1 BUW       0.117000
     22 H2           0.2640     4.3890     0.4850 ha         1 BUW       0.113000
     23 H3          -2.1760     4.8590     0.6680 ha         1 BUW       0.118000
     24 H4          -3.7750     3.0070     0.2760 ha         1 BUW       0.123000
     25 H5          -4.4970    -2.1010     0.1680 ha         1 BUW       0.123000
     26 H6          -3.4740    -4.3300     0.5180 ha         1 BUW       0.118000
     27 H7          -0.9940    -4.5410     0.3890 ha         1 BUW       0.113000
     28 H8           0.3870    -2.6110     0.0170 ha         1 BUW       0.117000
     29 H9           1.0790    -1.1680    -1.2250 h1         1 BUW       0.056200
     30 H10          1.2450     0.5440    -1.3840 h1         1 BUW       0.056200
     31 H11          1.9060     0.7630     1.0030 h1         1 BUW       0.062700
     32 H12          1.9980    -2.2530     1.2670 hc         1 BUW       0.042033
     33 H13          2.5280    -1.0180     2.4020 hc         1 BUW       0.042033
     34 H14          0.8170    -1.1820     2.0180 hc         1 BUW       0.042033
     35 H15          3.5650    -1.2060    -1.8930 h1         1 BUW       0.027950
     36 H16          3.0570    -2.2200    -0.5640 h1         1 BUW       0.027950
     37 H17          5.3010    -2.1330     0.4560 hc         1 BUW       0.037533
     38 H18          5.3840    -2.7220    -1.2090 hc         1 BUW       0.037533
     39 H19          5.8800    -1.0790    -0.8340 hc         1 BUW       0.037533
     40 H20          3.2290     1.3980    -1.3730 h1         1 BUW       0.027950
     41 H21          4.8350     0.8060    -1.0400 h1         1 BUW       0.027950
     42 H22          4.5800     2.9640     0.0110 hc         1 BUW       0.037533
     43 H23          3.1730     2.4600     0.9260 hc         1 BUW       0.037533
     44 H24          4.7420     1.7400     1.2750 hc         1 BUW       0.037533
     45 C19          3.7230    -1.3940    -0.8200 c3         1 BUW       0.185300
     46 C21          3.8740     1.0120    -0.5660 c3         1 BUW       0.185300
@<TRIPOS>BOND
     1     1     2 ar  
     2     1     6 ar  
     3     1    13 1   
     4     2     3 ar  
     5     2    21 1   
     6     3     4 ar  
     7     3    22 1   
     8     4     5 ar  
     9     4    23 1   
    10     5     6 ar  
    11     5    24 1   
    12     6    14 1   
    13     7     8 ar  
    14     7    12 ar  
    15     7    14 1   
    16     8     9 ar  
    17     8    25 1   
    18     9    10 ar  
    19     9    26 1   
    20    10    11 ar  
    21    10    27 1   
    22    11    12 ar  
    23    11    28 1   
    24    12    13 1   
    25    13    15 1   
    26    15    16 1   
    27    15    29 1   
    28    15    30 1   
    29    16    17 1   
    30    16    20 1   
    31    16    31 1   
    32    17    32 1   
    33    17    33 1   
    34    17    34 1   
    35    18    37 1   
    36    18    38 1   
    37    18    39 1   
    38    18    45 1   
    39    19    42 1   
    40    19    43 1   
    41    19    44 1   
    42    19    46 1   
    43    20    45 1   
    44    20    46 1   
    45    35    45 1   
    46    36    45 1   
    47    40    46 1   
    48    41    46 1   
@<TRIPOS>SUBSTRUCTURE
     1 BUW         1 TEMP              0 ****  ****    0 ROOT
