@<TRIPOS>MOLECULE
BUW
   46    48     1     0     0
SMALL
No Charge or Current Charge


@<TRIPOS>ATOM
      1 C01         -0.7730     1.1270     0.4920 ca         1 BUW       0.042500
      2 C02         -0.2570     1.9930     1.4760 ca         1 BUW      -0.168500
      3 C03         -0.7220     3.3160     1.5730 ca         1 BUW      -0.074500
      4 C04         -1.7140     3.7770     0.6930 ca         1 BUW      -0.138500
      5 C05         -2.2560     2.9120    -0.2730 ca         1 BUW      -0.057500
      6 C06         -1.7930     1.5880    -0.3690 ca         1 BUW      -0.137500
      7 C08         -2.3300    -1.0550    -0.6350 ca         1 BUW      -0.137500
      8 C09         -3.2620    -2.0970    -0.7850 ca         1 BUW      -0.057500
      9 C10         -3.1100    -3.2860    -0.0510 ca         1 BUW      -0.138500
     10 C11         -2.0290    -3.4350     0.8330 ca         1 BUW      -0.074500
     11 C12         -1.0940    -2.3960     0.9810 ca         1 BUW      -0.168500
     12 C13         -1.2390    -1.2020     0.2480 ca         1 BUW       0.042500
     13 N14         -0.2950    -0.1800     0.3590 na         1 BUW      -0.094000
     14 S07         -2.5430     0.4700    -1.5500 ss         1 BUW       0.024000
     15 C15          1.0230    -0.3940    -0.2820 c3         1 BUW       0.043600
     16 C16          2.2700    -0.1370     0.6170 c3         1 BUW       0.176500
     17 C17          2.2540    -1.0170     1.8910 c3         1 BUW      -0.086100
     18 C20          5.3480    -1.7690    -1.1290 c3         1 BUW      -0.093100
     19 C22          3.5820     2.3010    -0.6610 c3         1 BUW      -0.093100
     20 N18          3.5770    -0.2140    -0.1220 n3         1 BUW      -0.761600
     21 H1           0.4980     1.6450     2.1750 ha         1 BUW       0.117000
     22 H2          -0.3150     3.9820     2.3310 ha         1 BUW       0.113000
     23 H3          -2.0750     4.8010     0.7690 ha         1 BUW       0.118000
     24 H4          -3.0410     3.2660    -0.9380 ha         1 BUW       0.123000
     25 H5          -4.1050    -1.9830    -1.4640 ha         1 BUW       0.123000
     26 H6          -3.8330    -4.0910    -0.1660 ha         1 BUW       0.118000
     27 H7          -1.9140    -4.3560     1.4020 ha         1 BUW       0.113000
     28 H8          -0.2590    -2.5210     1.6650 ha         1 BUW       0.117000
     29 H9           1.0650    -1.4240    -0.6570 h1         1 BUW       0.056200
     30 H10          1.0680     0.2670    -1.1550 h1         1 BUW       0.056200
     31 H11          2.1740     0.8850     0.9980 h1         1 BUW       0.062700
     32 H12          2.1640    -2.0810     1.6470 hc         1 BUW       0.042033
     33 H13          3.1730    -0.8690     2.4710 hc         1 BUW       0.042033
     34 H14          1.4090    -0.7480     2.5340 hc         1 BUW       0.042033
     35 H15          3.2180    -1.8420    -1.4600 h1         1 BUW       0.027950
     36 H16          3.7440    -2.3250     0.1510 h1         1 BUW       0.027950
     37 H17          6.0610    -1.4350    -0.3660 hc         1 BUW       0.037533
     38 H18          5.5370    -2.8290    -1.3330 hc         1 BUW       0.037533
     39 H19          5.5350    -1.2150    -2.0550 hc         1 BUW       0.037533
     40 H20          3.0820     0.6820    -2.0030 h1         1 BUW       0.027950
     41 H21          4.7800     0.7950    -1.5590 h1         1 BUW       0.027950
     42 H22          3.9090     3.0030    -1.4370 hc         1 BUW       0.037533
     43 H23          2.5320     2.5210    -0.4380 hc         1 BUW       0.037533
     44 H24          4.1820     2.4800     0.2380 hc         1 BUW       0.037533
     45 C19          3.8980    -1.5790    -0.6380 c3         1 BUW       0.185300
     46 C21          3.7610     0.8500    -1.1570 c3         1 BUW       0.185300
@<TRIPOS>BOND
     1     1     2 ar  
     2     1     6 ar  
     3     1    13 1   
     4     2     3 ar  
     5     2    21 1   
     6     3     4 ar  
     7     3    22 1   
     8     4     5 ar  
     9     4    23 1   
    10     5     6 ar  
    11     5    24 1   
    12     6    14 1   
    13     7     8 ar  
    14     7    12 ar  
    15     7    14 1   
    16     8     9 ar  
    17     8    25 1   
    18     9    10 ar  
    19     9    26 1   
    20    10    11 ar  
    21    10    27 1   
    22    11    12 ar  
    23    11    28 1   
    24    12    13 1   
    25    13    15 1   
    26    15    16 1   
    27    15    29 1   
    28    15    30 1   
    29    16    17 1   
    30    16    20 1   
    31    16    31 1   
    32    17    32 1   
    33    17    33 1   
    34    17    34 1   
    35    18    37 1   
    36    18    38 1   
    37    18    39 1   
    38    18    45 1   
    39    19    42 1   
    40    19    43 1   
    41    19    44 1   
    42    19    46 1   
    43    20    45 1   
    44    20    46 1   
    45    35    45 1   
    46    36    45 1   
    47    40    46 1   
    48    41    46 1   
@<TRIPOS>SUBSTRUCTURE
     1 BUW         1 TEMP              0 ****  ****    0 ROOT
