@<TRIPOS>MOLECULE
BUX
   27    29     1     0     0
SMALL
No Charge or Current Charge


@<TRIPOS>ATOM
      1 C1          10.5780    10.5390    55.3800 ca         1 BUX      -0.110000
      2 C2          10.1530    10.1490    56.6650 ca         1 BUX       0.289000
      3 C3           8.9110    10.5970    57.1440 ca         1 BUX      -0.123000
      4 C4           8.1110    11.4400    56.3570 ca         1 BUX       0.135000
      5 C5           8.5420    11.8370    55.0810 ca         1 BUX      -0.103000
      6 C6          12.2450     9.1870    57.6640 cc         1 BUX       0.886500
      7 C7          13.9860     8.2330    58.9020 c          1 BUX       0.756700
      8 C8          14.9300     9.0200    58.1250 cc         1 BUX      -0.423400
      9 C9          14.4530     9.8510    57.1670 cd         1 BUX       0.270100
     10 C10         15.3330    10.6410    56.3870 cd         1 BUX      -0.341000
     11 C11         16.6860    10.5620    56.6050 cc         1 BUX       0.372100
     12 C12         16.3700     8.9310    58.3620 c          1 BUX       0.709300
     13 Cl1         17.9180    11.4420    55.7590 cl         1 BUX      -0.086000
     14 O2          17.1540     9.7200    57.5720 os         1 BUX      -0.344200
     15 O3          16.8820     8.2090    59.2040 o          1 BUX      -0.409000
     16 O           14.2880     7.4580    59.7910 o          1 BUX      -0.489100
     17 N1          12.6410     8.3880    58.6030 nd         1 BUX      -0.782100
     18 O1          13.1220     9.9330    56.9470 os         1 BUX      -0.339700
     19 N           10.9250     9.3070    57.4610 nu         1 BUX      -0.908200
     20 Cl           6.5620    12.0020    56.9710 cl         1 BUX      -0.185000
     21 C            9.7770    11.3830    54.5890 ca         1 BUX      -0.087000
     22 H1          11.5230    10.1810    54.9820 ha         1 BUX       0.132000
     23 H2           8.5660    10.3000    58.1290 ha         1 BUX       0.139000
     24 H3           7.9180    12.4890    54.4740 ha         1 BUX       0.137000
     25 H6          14.9450    11.3040    55.6220 ha         1 BUX       0.237000
     26 H9          10.4490     8.8360    58.2220 hn         1 BUX       0.541000
     27 H10         10.1120    11.6810    53.5970 ha         1 BUX       0.126000
@<TRIPOS>BOND
     1     1     2 ar  
     2     1    21 ar  
     3     1    22 1   
     4     2     3 ar  
     5     2    19 1   
     6     3     4 ar  
     7     3    23 1   
     8     4     5 ar  
     9     4    20 1   
    10     5    21 ar  
    11     5    24 1   
    12     6    17 2   
    13     6    18 1   
    14     6    19 1   
    15     7     8 1   
    16     7    16 2   
    17     7    17 1   
    18     8     9 2   
    19     8    12 1   
    20     9    10 1   
    21     9    18 1   
    22    10    11 2   
    23    10    25 1   
    24    11    13 1   
    25    11    14 1   
    26    12    14 1   
    27    12    15 2   
    28    19    26 1   
    29    21    27 1   
@<TRIPOS>SUBSTRUCTURE
     1 BUX         1 TEMP              0 ****  ****    0 ROOT
