@<TRIPOS>MOLECULE
BUX
   27    29     1     0     0
SMALL
abcg2


@<TRIPOS>ATOM
      1 C1          10.6240    10.2280    55.3540 ca         1 BUX      -0.110000
      2 C2          10.2380    10.0660    56.6790 ca         1 BUX       0.289000
      3 C3           9.1670    10.7870    57.1960 ca         1 BUX      -0.123000
      4 C4           8.4950    11.6730    56.3710 ca         1 BUX       0.135000
      5 C5           8.8780    11.8700    55.0540 ca         1 BUX      -0.103000
      6 C6          12.1770     9.0170    57.7800 cc         1 BUX       0.886500
      7 C7          13.9830     8.0420    58.8400 c          1 BUX       0.756700
      8 C8          14.8350     8.9870    58.1040 cc         1 BUX      -0.423400
      9 C9          14.2480     9.8860    57.2600 cd         1 BUX       0.270100
     10 C10         14.9730    10.8340    56.5030 cd         1 BUX      -0.341000
     11 C11         16.3070    10.7970    56.6630 cc         1 BUX       0.372100
     12 C12         16.2680     8.9980    58.2430 c          1 BUX       0.709300
     13 CL1         17.3670    11.8360    55.8500 cl         1 BUX      -0.086000
     14 O2          16.9270     9.9550    57.4650 os         1 BUX      -0.344200
     15 O3          16.9690     8.3110    58.9230 o          1 BUX      -0.409000
     16 O           14.4180     7.2200    59.6190 o          1 BUX      -0.489100
     17 N1          12.6350     8.1330    58.5920 nd         1 BUX      -0.782100
     18 O1          12.9210     9.9150    57.1050 os         1 BUX      -0.339700
     19 N           10.8720     9.1360    57.5320 nu         1 BUX      -0.908200
     20 CL           7.1580    12.5650    57.0130 cl         1 BUX      -0.185000
     21 C            9.9480    11.1400    54.5580 ca         1 BUX      -0.087000
     22 H1          11.4290     9.6420    54.9330 ha         1 BUX       0.132000
     23 H2           8.8690    10.6560    58.2280 ha         1 BUX       0.139000
     24 H3           8.3510    12.5720    54.4240 ha         1 BUX       0.137000
     25 H6          14.4900    11.5360    55.8410 ha         1 BUX       0.237000
     26 H9          10.2830     8.5460    58.1040 hn         1 BUX       0.541000
     27 H10         10.2490    11.2720    53.5280 ha         1 BUX       0.126000
@<TRIPOS>BOND
     1     1     2 ar  
     2     1    21 ar  
     3     1    22 1   
     4     2     3 ar  
     5     2    19 1   
     6     3     4 ar  
     7     3    23 1   
     8     4     5 ar  
     9     4    20 1   
    10     5    21 ar  
    11     5    24 1   
    12     6    17 2   
    13     6    18 1   
    14     6    19 1   
    15     7     8 1   
    16     7    16 2   
    17     7    17 1   
    18     8     9 2   
    19     8    12 1   
    20     9    10 1   
    21     9    18 1   
    22    10    11 2   
    23    10    25 1   
    24    11    13 1   
    25    11    14 1   
    26    12    14 1   
    27    12    15 2   
    28    19    26 1   
    29    21    27 1   
@<TRIPOS>SUBSTRUCTURE
     1 BUX         1 TEMP              0 ****  ****    0 ROOT
