@<TRIPOS>MOLECULE
BUY
   58    62     1     0     0
SMALL
No Charge or Current Charge


@<TRIPOS>ATOM
      1 C13          3.3640    -0.7140     0.3700 ce         1 BUY      -0.110200
      2 C17          0.6510     2.4510    -0.8040 c6         1 BUY       0.124000
      3 C15          1.0270     0.2450     0.4220 c          1 BUY       0.599300
      4 C19         -1.2680     1.3280     0.4690 c6         1 BUY       0.076000
      5 C20         -1.7700     2.7530     0.7480 ca         1 BUY      -0.087300
      6 C21         -1.3830     3.7890    -0.1150 ca         1 BUY      -0.057300
      7 C22         -0.4450     3.4450    -1.2610 c6         1 BUY      -0.051100
      8 C23         -2.6140     3.0330     1.8420 ca         1 BUY      -0.089000
      9 C24         -3.0780     4.3430     2.0550 ca         1 BUY      -0.108000
     10 C34         -4.7300    -0.0790    -0.5660 ca         1 BUY      -0.065000
     11 C27         -2.2450     0.6040    -0.5050 c          1 BUY       0.607100
     12 C33         -4.7610    -0.8320    -1.7580 ca         1 BUY      -0.172000
     13 C2           7.0940    -1.5800     0.5010 ca         1 BUY      -0.099000
     14 C3           7.5630    -0.9190    -0.6460 ca         1 BUY      -0.096000
     15 C4           6.6690    -0.1960    -1.4470 ca         1 BUY       0.126000
     16 C5           5.3100    -0.1300    -1.1060 ca         1 BUY      -0.091000
     17 C6           4.8230    -0.7870     0.0450 ca         1 BUY      -0.014800
     18 C7           5.7300    -1.5210     0.8550 ca         1 BUY       0.006800
     19 N8           5.3100    -2.1810     2.0110 na         1 BUY      -0.000500
     20 C9           5.4430    -3.5180     2.2430 cc         1 BUY       0.392400
     21 N10          5.0410    -3.7010     3.4880 nd         1 BUY      -0.377000
     22 N11          4.7010    -2.4540     3.9840 nd         1 BUY      -0.035000
     23 N12          4.8870    -1.5050     3.1000 nc         1 BUY      -0.184800
     24 C14          2.4730     0.2700     0.0390 cf         1 BUY      -0.245200
     25 O16          0.5830    -0.6920     1.0720 o          1 BUY      -0.582100
     26 N18          0.1750     1.3040     0.0310 n          1 BUY      -0.391800
     27 C25         -2.6990     5.3750     1.1800 ca         1 BUY      -0.104000
     28 C26         -1.8490     5.1000     0.0940 ca         1 BUY      -0.108000
     29 C29         -5.9280     0.1090     0.1450 ca         1 BUY      -0.172000
     30 C30         -7.1380    -0.4340    -0.3220 ca         1 BUY      -0.068000
     31 C31         -7.1760    -1.1860    -1.5180 ca         1 BUY      -0.146600
     32 C32         -5.9690    -1.3770    -2.2280 ca         1 BUY      -0.068000
     33 C36         -8.4820    -1.7750    -2.0260 c          1 BUY       0.714600
     34 O37         -8.4690    -2.4190    -3.0660 o          1 BUY      -0.723000
     35 O38         -9.5020    -1.5860    -1.3790 o          1 BUY      -0.723000
     36 H43          2.9880    -1.5600     0.9500 ha         1 BUY       0.220000
     37 H46          1.1590     2.0630    -1.6990 h1         1 BUY       0.039700
     38 H45          1.3960     3.0090    -0.2180 h1         1 BUY       0.039700
     39 H47         -1.3520     0.7740     1.4140 h1         1 BUY       0.074700
     40 H49          0.0250     4.3500    -1.6690 hc         1 BUY       0.069200
     41 H48         -1.0250     3.0000    -2.0800 hc         1 BUY       0.069200
     42 H50         -2.9140     2.2400     2.5250 ha         1 BUY       0.116000
     43 H51         -3.7310     4.5570     2.8970 ha         1 BUY       0.115000
     44 H57         -3.8600    -1.0140    -2.3350 ha         1 BUY       0.101500
     45 H39          7.7980    -2.1330     1.1200 ha         1 BUY       0.132000
     46 H40          8.6160    -0.9670    -0.9130 ha         1 BUY       0.136000
     47 H41          4.6350     0.4220    -1.7530 ha         1 BUY       0.141000
     48 H42          5.8050    -4.2440     1.5260 h5         1 BUY       0.076100
     49 H44          2.8360     1.1270    -0.5180 ha         1 BUY       0.179000
     50 H52         -3.0590     6.3880     1.3450 ha         1 BUY       0.109000
     51 H53         -1.5520     5.9030    -0.5770 ha         1 BUY       0.108000
     52 H54         -5.9270     0.6840     1.0690 ha         1 BUY       0.101500
     53 H55         -8.0470    -0.2680     0.2520 ha         1 BUY       0.127500
     54 H56         -5.9620    -1.9540    -3.1510 ha         1 BUY       0.127500
     55 H58         -3.6850     0.9230     0.8820 hn         1 BUY       0.138000
     56 O28         -1.8800     0.1860    -1.6030 o          1 BUY      -0.591100
     57 Cl1          7.2520     0.6280    -2.8880 cl         1 BUY      -0.187000
     58 N35         -3.5480     0.5000    -0.0260 ns         1 BUY      -0.119000
@<TRIPOS>BOND
     1     1    17 1   
     2     1    24 2   
     3     1    36 1   
     4     2     7 1   
     5     2    26 1   
     6     2    37 1   
     7     2    38 1   
     8     3    24 1   
     9     3    25 2   
    10     3    26 1   
    11     4     5 1   
    12     4    11 1   
    13     4    26 1   
    14     4    39 1   
    15     5     6 ar  
    16     5     8 ar  
    17     6     7 1   
    18     6    28 ar  
    19     7    40 1   
    20     7    41 1   
    21     8     9 ar  
    22     8    42 1   
    23     9    27 ar  
    24     9    43 1   
    25    10    12 ar  
    26    10    29 ar  
    27    10    58 1   
    28    11    56 2   
    29    11    58 1   
    30    12    32 ar  
    31    12    44 1   
    32    13    14 ar  
    33    13    18 ar  
    34    13    45 1   
    35    14    15 ar  
    36    14    46 1   
    37    15    16 ar  
    38    15    57 1   
    39    16    17 ar  
    40    16    47 1   
    41    17    18 ar  
    42    18    19 1   
    43    19    20 1   
    44    19    23 1   
    45    20    21 2   
    46    20    48 1   
    47    21    22 1   
    48    22    23 2   
    49    24    49 1   
    50    27    28 ar  
    51    27    50 1   
    52    28    51 1   
    53    29    30 ar  
    54    29    52 1   
    55    30    31 ar  
    56    30    53 1   
    57    31    32 ar  
    58    31    33 1   
    59    32    54 1   
    60    33    34 1   
    61    33    35 1   
    62    55    58 1   
@<TRIPOS>SUBSTRUCTURE
     1 BUY         1 TEMP              0 ****  ****    0 ROOT
