@<TRIPOS>MOLECULE
BUY
   58    62     1     0     0
SMALL
bcc


@<TRIPOS>ATOM
      1 C13          2.8670    -0.5840     0.1920 ce         1 BUY      -0.060200
      2 C17          0.9000     3.0810    -0.4030 c6         1 BUY       0.124000
      3 C15          0.8230     0.7310     0.4120 c          1 BUY       0.666300
      4 C19         -1.1520     2.0140     0.6090 c6         1 BUY       0.076000
      5 C20         -1.7260     3.4060     0.5090 ca         1 BUY      -0.087300
      6 C21         -1.2430     4.3000    -0.4430 ca         1 BUY      -0.057300
      7 C22         -0.0650     3.8780    -1.2640 c6         1 BUY      -0.051100
      8 C23         -2.7820     3.7740     1.3350 ca         1 BUY      -0.107000
      9 C24         -3.3710     5.0230     1.2080 ca         1 BUY      -0.126000
     10 C34         -4.0460    -0.3130    -0.1330 ca         1 BUY       0.027600
     11 C27         -2.0060     1.1020    -0.2890 c          1 BUY       0.674100
     12 C33         -4.1930    -0.6630    -1.4750 ca         1 BUY      -0.190000
     13 C2           6.3110    -2.1140     0.3600 ca         1 BUY      -0.117000
     14 C3           7.0310    -1.2840    -0.4810 ca         1 BUY      -0.114000
     15 C4           6.3830    -0.2100    -1.0720 ca         1 BUY       0.034400
     16 C5           5.0390     0.0340    -0.8500 ca         1 BUY      -0.109000
     17 C6           4.3000    -0.8030    -0.0160 ca         1 BUY      -0.014800
     18 C7           4.9660    -1.8760     0.5820 ca         1 BUY       0.006800
     19 N8           4.2660    -2.7400     1.4560 na         1 BUY      -0.000500
     20 C9           4.1430    -4.0720     1.4210 cc         1 BUY       0.392400
     21 N10          3.4410    -4.4400     2.4580 nd         1 BUY      -0.377000
     22 N11          3.1440    -3.3180     3.1190 nd         1 BUY      -0.035000
     23 N12          3.6300    -2.2970     2.5390 nc         1 BUY      -0.184800
     24 C14          2.2870     0.6170     0.1960 cf         1 BUY      -0.195200
     25 O16          0.1620    -0.2280     0.7960 o          1 BUY      -0.582100
     26 N18          0.2390     1.9340     0.2080 n          1 BUY      -0.458800
     27 C25         -2.8950     5.9150     0.2550 ca         1 BUY      -0.122000
     28 C26         -1.8300     5.5550    -0.5570 ca         1 BUY      -0.126000
     29 C29         -4.9730    -0.7970     0.7940 ca         1 BUY      -0.190000
     30 C30         -6.0150    -1.6110     0.3910 ca         1 BUY      -0.086000
     31 C31         -6.1730    -1.9730    -0.9440 ca         1 BUY      -0.146600
     32 C32         -5.2470    -1.4820    -1.8570 ca         1 BUY      -0.086000
     33 C36         -7.3140    -2.8760    -1.3850 c          1 BUY       0.925200
     34 O37         -7.3650    -3.1620    -2.5980 o          1 BUY      -0.828300
     35 O38         -8.1020    -3.2550    -0.4970 o          1 BUY      -0.828300
     36 H43          2.2490    -1.4630     0.3390 ha         1 BUY       0.170000
     37 H46          1.7160     2.7340    -1.0320 h1         1 BUY       0.039700
     38 H45          1.3250     3.7310     0.3670 h1         1 BUY       0.039700
     39 H47         -1.2390     1.6820     1.6480 h1         1 BUY       0.074700
     40 H49          0.4590     4.7480    -1.6610 hc         1 BUY       0.069200
     41 H48         -0.3810     3.2760    -2.1190 hc         1 BUY       0.069200
     42 H50         -3.1460     3.0870     2.0900 ha         1 BUY       0.134000
     43 H51         -4.1920     5.3020     1.8550 ha         1 BUY       0.133000
     44 H57         -3.4990    -0.3110    -2.2200 ha         1 BUY       0.119500
     45 H39          6.8070    -2.9410     0.8520 ha         1 BUY       0.150000
     46 H40          8.0800    -1.4690    -0.6620 ha         1 BUY       0.154000
     47 H41          4.5530     0.8560    -1.3570 ha         1 BUY       0.159000
     48 H42          4.5510    -4.7020     0.6490 h5         1 BUY       0.076100
     49 H44          2.8870     1.5110     0.0990 ha         1 BUY       0.129000
     50 H52         -3.3420     6.8950     0.1560 ha         1 BUY       0.127000
     51 H53         -1.4420     6.2580    -1.2860 ha         1 BUY       0.126000
     52 H54         -4.8750    -0.5300     1.8410 ha         1 BUY       0.119500
     53 H55         -6.7190    -1.9720     1.1300 ha         1 BUY       0.145500
     54 H56         -5.3440    -1.7470    -2.9020 ha         1 BUY       0.145500
     55 H58         -3.0300     0.6100     1.3690 hn         1 BUY       0.304500
     56 O28         -1.7920     1.0140    -1.4810 o          1 BUY      -0.591100
     57 CL1          7.2670     0.8390    -2.1210 cl         1 BUY      -0.095400
     58 N35         -3.0240     0.5010     0.3660 ns         1 BUY      -0.445100
@<TRIPOS>BOND
     1     1    17 1   
     2     1    24 2   
     3     1    36 1   
     4     2     7 1   
     5     2    26 1   
     6     2    37 1   
     7     2    38 1   
     8     3    24 1   
     9     3    25 2   
    10     3    26 1   
    11     4     5 1   
    12     4    11 1   
    13     4    26 1   
    14     4    39 1   
    15     5     6 ar  
    16     5     8 ar  
    17     6     7 1   
    18     6    28 ar  
    19     7    40 1   
    20     7    41 1   
    21     8     9 ar  
    22     8    42 1   
    23     9    27 ar  
    24     9    43 1   
    25    10    12 ar  
    26    10    29 ar  
    27    10    58 1   
    28    11    56 2   
    29    11    58 1   
    30    12    32 ar  
    31    12    44 1   
    32    13    14 ar  
    33    13    18 ar  
    34    13    45 1   
    35    14    15 ar  
    36    14    46 1   
    37    15    16 ar  
    38    15    57 1   
    39    16    17 ar  
    40    16    47 1   
    41    17    18 ar  
    42    18    19 1   
    43    19    20 1   
    44    19    23 1   
    45    20    21 2   
    46    20    48 1   
    47    21    22 1   
    48    22    23 2   
    49    24    49 1   
    50    27    28 ar  
    51    27    50 1   
    52    28    51 1   
    53    29    30 ar  
    54    29    52 1   
    55    30    31 ar  
    56    30    53 1   
    57    31    32 ar  
    58    31    33 1   
    59    32    54 1   
    60    33    34 1   
    61    33    35 1   
    62    55    58 1   
@<TRIPOS>SUBSTRUCTURE
     1 BUY         1 TEMP              0 ****  ****    0 ROOT
