@<TRIPOS>MOLECULE
BV0
   58    62     1     0     0
SMALL
No Charge or Current Charge


@<TRIPOS>ATOM
      1 C1           4.2140     2.3420    -0.3310 ca         1 BV0      -0.107300
      2 C2           4.4620     3.7000    -0.0530 ca         1 BV0      -0.005000
      3 C3           3.4100     4.5610     0.2770 ca         1 BV0      -0.147000
      4 C4           2.1000     4.0710     0.3300 ca         1 BV0      -0.009300
      5 C5           0.4860     2.2110     0.0960 c          1 BV0       0.554400
      6 C6           2.8920     1.8200    -0.2820 ca         1 BV0       0.287400
      7 C7           1.5020    -0.0010    -0.5120 cc         1 BV0       0.198000
      8 C8           0.3560     0.7770    -0.2170 cc         1 BV0      -0.357600
      9 C9          -0.8790     0.1980    -0.2180 cd         1 BV0       0.126000
     10 C13         -5.7390    -0.3250     0.1090 ca         1 BV0      -0.184300
     11 C15         -7.4150     1.6380     1.0730 ca         1 BV0       0.354900
     12 C16         -6.8340     1.8020    -0.1950 ca         1 BV0      -0.162000
     13 C17         -5.9800     0.8050    -0.6930 ca         1 BV0      -0.061000
     14 C20          2.7760    -3.1860     0.5100 c5         1 BV0       0.148300
     15 C21          4.1150    -1.8360     1.8780 c5         1 BV0       0.150600
     16 C22          5.0730    -2.8160     1.1340 c5         1 BV0      -0.113400
     17 C23          4.1190    -3.9420     0.6350 c5         1 BV0      -0.106400
     18 N            1.7980     2.6920     0.0520 n          1 BV0      -0.027500
     19 C            5.4040     1.4440    -0.6860 c3         1 BV0      -0.038800
     20 O           -0.4700     2.9270     0.3690 o          1 BV0      -0.469000
     21 C10         -1.0150    -1.1760    -0.6170 cd         1 BV0      -0.313600
     22 C11         -2.3730    -1.8140    -0.7180 c          1 BV0       0.635700
     23 C12         -4.8260    -1.4380    -0.3730 c3         1 BV0       0.149300
     24 C14         -6.3660    -0.4080     1.3690 ca         1 BV0       0.354900
     25 C18          0.1190    -1.9270    -0.9450 cc         1 BV0       0.475000
     26 N1           2.7500     0.4510    -0.5640 nd         1 BV0      -0.421400
     27 N2          -3.4280    -1.0160    -0.3400 ns         1 BV0      -0.477900
     28 N3          -7.1900     0.5520     1.8500 nb         1 BV0      -0.653000
     29 N4           0.0540    -3.2220    -1.3780 nv         1 BV0      -1.057000
     30 N5           1.4280    -1.3930    -0.7500 na         1 BV0      -0.020000
     31 O1          -2.5850    -2.9550    -1.1040 o          1 BV0      -0.624100
     32 O2           2.7880    -2.3860     1.7090 os         1 BV0      -0.457000
     33 H1           5.4770     4.0920    -0.0910 ha         1 BV0       0.152000
     34 H2           3.6100     5.6100     0.4920 ha         1 BV0       0.164000
     35 H3           1.2640     4.7250     0.5850 h4         1 BV0       0.189000
     36 H4          -1.7430     0.8080     0.0300 ha         1 BV0       0.162000
     37 H5          -8.0810     2.3980     1.4800 h4         1 BV0       0.031100
     38 H6          -7.0480     2.6930    -0.7790 ha         1 BV0       0.132000
     39 H7          -5.5180     0.9080    -1.6740 ha         1 BV0       0.117000
     40 H8           1.9220    -3.8760     0.5510 h1         1 BV0       0.073700
     41 H9           4.3400    -1.7600     2.9500 h1         1 BV0       0.057200
     42 H10          4.1490    -0.8280     1.4450 h1         1 BV0       0.057200
     43 H11          5.5750    -2.3100     0.3000 hc         1 BV0       0.064200
     44 H12          5.8600    -3.2030     1.7920 hc         1 BV0       0.064200
     45 H13          4.0390    -4.7510     1.3710 hc         1 BV0       0.072700
     46 H14          4.4470    -4.3930    -0.3090 hc         1 BV0       0.072700
     47 H15          5.2660     0.9720    -1.6660 hc         1 BV0       0.061033
     48 H16          6.3460     2.0040    -0.7270 hc         1 BV0       0.061033
     49 H17          5.5340     0.6470     0.0560 hc         1 BV0       0.061033
     50 H18         -4.9470    -2.3290     0.2590 h1         1 BV0       0.075700
     51 H19         -5.0930    -1.7160    -1.4020 h1         1 BV0       0.075700
     52 H20         -6.2030    -1.2690     2.0160 h4         1 BV0       0.022100
     53 H21          3.5630    -1.7290    -0.8950 h1         1 BV0       0.094200
     54 H22          2.5900    -2.9500    -1.6340 h1         1 BV0       0.094200
     55 H24         -3.2260    -0.0830    -0.0110 hn         1 BV0       0.324500
     56 H25         -0.9050    -3.5690    -1.4760 hn         1 BV0       0.546500
     57 H26          0.6600    -3.5000    -2.1440 hn         1 BV0       0.546500
     58 C19          2.6360    -2.2940    -0.7580 c3         1 BV0       0.006600
@<TRIPOS>BOND
     1     1     2 ar  
     2     1     6 ar  
     3     1    19 1   
     4     2     3 ar  
     5     2    33 1   
     6     3     4 ar  
     7     3    34 1   
     8     4    18 2   
     9     4    35 1   
    10     5     8 1   
    11     5    18 1   
    12     5    20 2   
    13     6    18 1   
    14     6    26 1   
    15     7     8 1   
    16     7    26 2   
    17     7    30 1   
    18     8     9 2   
    19     9    21 1   
    20     9    36 1   
    21    10    13 ar  
    22    10    23 1   
    23    10    24 ar  
    24    11    12 ar  
    25    11    28 ar  
    26    11    37 1   
    27    12    13 ar  
    28    12    38 1   
    29    13    39 1   
    30    14    17 1   
    31    14    32 1   
    32    14    40 1   
    33    14    58 1   
    34    15    16 1   
    35    15    32 1   
    36    15    41 1   
    37    15    42 1   
    38    16    17 1   
    39    16    43 1   
    40    16    44 1   
    41    17    45 1   
    42    17    46 1   
    43    19    47 1   
    44    19    48 1   
    45    19    49 1   
    46    21    22 1   
    47    21    25 2   
    48    22    27 1   
    49    22    31 2   
    50    23    27 1   
    51    23    50 1   
    52    23    51 1   
    53    24    28 ar  
    54    24    52 1   
    55    25    29 1   
    56    25    30 1   
    57    27    55 1   
    58    29    56 1   
    59    29    57 1   
    60    30    58 1   
    61    53    58 1   
    62    54    58 1   
@<TRIPOS>SUBSTRUCTURE
     1 BV0         1 TEMP              0 ****  ****    0 ROOT
