@<TRIPOS>MOLECULE
BV0
   58    62     1     0     0
SMALL
abcg2


@<TRIPOS>ATOM
      1 C1           4.2490     2.2210    -0.2030 ca         1 BV0      -0.107300
      2 C2           4.4570     3.5400     0.0820 ca         1 BV0      -0.005000
      3 C3           3.3790     4.4020     0.3640 ca         1 BV0      -0.147000
      4 C4           2.1190     3.9150     0.3450 ca         1 BV0      -0.009300
      5 C5           0.5260     2.1570     0.0450 c          1 BV0       0.554400
      6 C6           2.9170     1.7210    -0.2090 ca         1 BV0       0.287400
      7 C7           1.4850    -0.0220    -0.5060 cc         1 BV0       0.198000
      8 C8           0.3610     0.7690    -0.2630 cc         1 BV0      -0.357600
      9 C9          -0.9130     0.1960    -0.3070 cd         1 BV0       0.126000
     10 C13         -5.6450    -0.3880     0.3090 ca         1 BV0      -0.184300
     11 C15         -7.3370     1.7300     0.5720 ca         1 BV0       0.354900
     12 C16         -6.4710     1.7020    -0.5130 ca         1 BV0      -0.162000
     13 C17         -5.6120     0.6250    -0.6440 ca         1 BV0      -0.061000
     14 C20          2.7350    -3.0170     0.3120 c5         1 BV0       0.148300
     15 C21          4.0150    -1.8070     1.8350 c5         1 BV0       0.150600
     16 C22          4.9750    -2.4920     0.8650 c5         1 BV0      -0.113400
     17 C23          4.1290    -3.6310     0.3020 c5         1 BV0      -0.106400
     18 N            1.8900     2.5950     0.0610 n          1 BV0      -0.027500
     19 C            5.3720     1.2870    -0.5150 c3         1 BV0      -0.038800
     20 O           -0.3630     2.9420     0.2790 o          1 BV0      -0.469000
     21 C10         -1.0890    -1.1220    -0.6100 cd         1 BV0      -0.313600
     22 C11         -2.4460    -1.7400    -0.6460 c          1 BV0       0.635700
     23 C12         -4.7430    -1.5860     0.2150 c3         1 BV0       0.149300
     24 C14         -6.5490    -0.2530     1.3550 ca         1 BV0       0.354900
     25 C18          0.0690    -1.9040    -0.9340 cc         1 BV0       0.475000
     26 N1           2.7160     0.4420    -0.4780 nd         1 BV0      -0.421400
     27 N2          -3.3540    -1.1780     0.1630 ns         1 BV0      -0.477900
     28 N3          -7.3790     0.7750     1.4900 nb         1 BV0      -0.653000
     29 N4          -0.0520    -3.1580    -1.3070 nv         1 BV0      -1.057000
     30 N5           1.3060    -1.3520    -0.8260 na         1 BV0      -0.020000
     31 O1          -2.7000    -2.6920    -1.3790 o          1 BV0      -0.624100
     32 O2           2.6940    -2.1730     1.4400 os         1 BV0      -0.457000
     33 H1           5.4660     3.9320     0.0910 ha         1 BV0       0.152000
     34 H2           3.5420     5.4450     0.5880 ha         1 BV0       0.164000
     35 H3           1.2470     4.5160     0.5430 h4         1 BV0       0.189000
     36 H4          -1.7670     0.8320    -0.1100 ha         1 BV0       0.162000
     37 H5          -8.0210     2.5620     0.7030 h4         1 BV0       0.031100
     38 H6          -6.4730     2.5070    -1.2350 ha         1 BV0       0.132000
     39 H7          -4.9230     0.5730    -1.4790 ha         1 BV0       0.117000
     40 H8           1.9580    -3.7770     0.4300 h1         1 BV0       0.073700
     41 H9           4.1790    -2.1440     2.8630 h1         1 BV0       0.057200
     42 H10          4.1150    -0.7190     1.8200 h1         1 BV0       0.057200
     43 H11          5.2840    -1.8150     0.0660 hc         1 BV0       0.064200
     44 H12          5.8780    -2.8420     1.3610 hc         1 BV0       0.064200
     45 H13          4.1540    -4.5010     0.9610 hc         1 BV0       0.072700
     46 H14          4.4460    -3.9540    -0.6910 hc         1 BV0       0.072700
     47 H15          5.2370     0.8120    -1.4860 hc         1 BV0       0.061033
     48 H16          6.3190     1.8230    -0.5230 hc         1 BV0       0.061033
     49 H17          5.4410     0.4900     0.2260 hc         1 BV0       0.061033
     50 H18         -4.9100    -2.2520     1.0640 h1         1 BV0       0.075700
     51 H19         -4.9660    -2.1560    -0.6860 h1         1 BV0       0.075700
     52 H20         -6.6000    -1.0180     2.1240 h4         1 BV0       0.022100
     53 H21          3.3340    -1.5410    -1.1590 h1         1 BV0       0.094200
     54 H22          2.3980    -2.8410    -1.8420 h1         1 BV0       0.094200
     55 H24         -3.0460    -0.5440     0.8840 hn         1 BV0       0.324500
     56 H25         -0.9880    -3.5060    -1.4810 hn         1 BV0       0.546500
     57 H26          0.7240    -3.7370    -1.5820 hn         1 BV0       0.546500
     58 C19          2.4950    -2.2020    -0.9640 c3         1 BV0       0.006600
@<TRIPOS>BOND
     1     1     2 ar  
     2     1     6 ar  
     3     1    19 1   
     4     2     3 ar  
     5     2    33 1   
     6     3     4 ar  
     7     3    34 1   
     8     4    18 2   
     9     4    35 1   
    10     5     8 1   
    11     5    18 1   
    12     5    20 2   
    13     6    18 1   
    14     6    26 1   
    15     7     8 1   
    16     7    26 2   
    17     7    30 1   
    18     8     9 2   
    19     9    21 1   
    20     9    36 1   
    21    10    13 ar  
    22    10    23 1   
    23    10    24 ar  
    24    11    12 ar  
    25    11    28 ar  
    26    11    37 1   
    27    12    13 ar  
    28    12    38 1   
    29    13    39 1   
    30    14    17 1   
    31    14    32 1   
    32    14    40 1   
    33    14    58 1   
    34    15    16 1   
    35    15    32 1   
    36    15    41 1   
    37    15    42 1   
    38    16    17 1   
    39    16    43 1   
    40    16    44 1   
    41    17    45 1   
    42    17    46 1   
    43    19    47 1   
    44    19    48 1   
    45    19    49 1   
    46    21    22 1   
    47    21    25 2   
    48    22    27 1   
    49    22    31 2   
    50    23    27 1   
    51    23    50 1   
    52    23    51 1   
    53    24    28 ar  
    54    24    52 1   
    55    25    29 1   
    56    25    30 1   
    57    27    55 1   
    58    29    56 1   
    59    29    57 1   
    60    30    58 1   
    61    53    58 1   
    62    54    58 1   
@<TRIPOS>SUBSTRUCTURE
     1 BV0         1 TEMP              0 ****  ****    0 ROOT
