@<TRIPOS>MOLECULE
BV1
  152   158     1     0     0
SMALL
bcc


@<TRIPOS>ATOM
      1 N9           9.9700     5.1910    -4.2340 ns         1 BV1      -0.547400
      2 C38         10.6420     4.1520    -4.7370 c          1 BV1       0.674700
      3 O12         10.8800     3.9980    -5.9270 o          1 BV1      -0.594100
      4 C39         11.1180     3.1430    -3.7280 ca         1 BV1      -0.152600
      5 C44         11.2430     3.4430    -2.3760 ca         1 BV1      -0.095000
      6 C40         11.4570     1.8790    -4.1890 ca         1 BV1      -0.025500
      7 C41         11.8870     0.9330    -3.2760 ca         1 BV1      -0.177700
      8 N10         12.2280    -0.4040    -3.7510 no         1 BV1       0.314700
      9 O15         12.1230    -0.6280    -4.9330 o          1 BV1      -0.201250
     10 O14         12.5980    -1.2150    -2.9380 o          1 BV1      -0.201250
     11 C42         12.0120     1.2080    -1.9230 ca         1 BV1      -0.054000
     12 C43         11.6820     2.4780    -1.4780 ca         1 BV1       0.086100
     13 O13         11.7650     2.7430    -0.1480 os         1 BV1      -0.320900
     14 C45         12.8880     3.4850     0.2840 c6         1 BV1       0.308900
     15 O16         12.7900     4.8280    -0.0680 os         1 BV1      -0.420100
     16 C46         11.7060     5.5350     0.5310 c6         1 BV1       0.073600
     17 C50         11.6840     6.9230    -0.0830 c3         1 BV1       0.146400
     18 O20         11.4250     6.8870    -1.4660 oh         1 BV1      -0.592300
     19 C47         11.8380     5.5280     2.0490 c6         1 BV1       0.104100
     20 O17         12.9300     6.2860     2.5100 oh         1 BV1      -0.589300
     21 C48         11.8750     4.0700     2.5140 c6         1 BV1       0.122100
     22 O18         12.0340     4.0440     3.9060 oh         1 BV1      -0.577800
     23 C49         12.9990     3.3190     1.8040 c6         1 BV1       0.098600
     24 O19         12.9490     1.9740     2.1950 oh         1 BV1      -0.574800
     25 C1           1.9320     1.9260     2.4820 c3         1 BV1       0.146400
     26 C2           0.7780     2.8150     2.0440 c6         1 BV1       0.073600
     27 O2          -0.2300     2.7720     3.0380 os         1 BV1      -0.420100
     28 C3          -1.2750     3.6600     2.7840 c6         1 BV1       0.308900
     29 O3          -2.1670     3.5820     3.8550 os         1 BV1      -0.320900
     30 C4          -1.7760     4.2130     4.9960 ca         1 BV1       0.086100
     31 C5          -1.8540     5.5970     5.0870 ca         1 BV1      -0.095000
     32 C6          -1.4880     6.2450     6.2630 ca         1 BV1      -0.152600
     33 C7          -1.0770     5.4980     7.3590 ca         1 BV1      -0.025500
     34 C8          -1.0120     4.1220     7.2410 ca         1 BV1      -0.177700
     35 C9          -1.3410     3.4580     6.0710 ca         1 BV1      -0.054000
     36 N1          -0.5700     3.3360     8.3900 no         1 BV1       0.314700
     37 O4          -0.3030     3.9260     9.4080 o          1 BV1      -0.201250
     38 O5          -0.4980     2.1380     8.2600 o          1 BV1      -0.201250
     39 C10         -1.4950     7.7410     6.4100 c          1 BV1       0.674700
     40 O6          -1.5160     8.2560     7.5180 o          1 BV1      -0.594100
     41 N2          -1.4470     8.4370     5.2670 ns         1 BV1      -0.547400
     42 C11         -1.1170     9.8480     5.2160 c3         1 BV1       0.107500
     43 C12          0.3770    10.1160     5.4380 c3         1 BV1      -0.103900
     44 N3           0.8630     8.6410     3.5000 n3         1 BV1      -0.744600
     45 C14          1.2850     9.5940     2.4920 c6         1 BV1       0.165300
     46 C15          0.7630     9.2020     1.1240 c6         1 BV1       0.167300
     47 N4           1.1940     7.8620     0.7770 n3         1 BV1      -0.730600
     48 C16          0.7680     6.9220     1.7850 c6         1 BV1       0.167300
     49 C17          1.3060     7.3070     3.1490 c6         1 BV1       0.165300
     50 C18          0.7910     7.4610    -0.5550 c3         1 BV1       0.172300
     51 C19          1.5810     8.1640    -1.6530 c3         1 BV1      -0.107900
     52 C20          3.0900     8.0950    -1.4390 c3         1 BV1       0.228300
     53 C21          3.8160     6.1660    -0.0750 cc         1 BV1       0.031300
     54 C22          4.2850     6.5360     1.2040 cd         1 BV1       0.031300
     55 N6           4.7530     7.6080     1.8220 nu         1 BV1      -0.716500
     56 C23          5.4550     8.7080     1.1890 c3         1 BV1       0.228300
     57 C24          6.9580     8.6330     1.4290 c3         1 BV1      -0.107900
     58 N7           7.1320     6.8280    -0.2640 n3         1 BV1      -0.730600
     59 C26          7.6360     7.6460    -1.3480 c6         1 BV1       0.167300
     60 C27          7.0940     7.1660    -2.6800 c6         1 BV1       0.165300
     61 N8           7.4690     5.7820    -2.8960 n3         1 BV1      -0.744600
     62 C28          6.9420     4.9580    -1.8260 c6         1 BV1       0.165300
     63 C29          7.4630     5.4370    -0.4850 c6         1 BV1       0.167300
     64 C30          7.1110     5.2760    -4.2080 c3         1 BV1       0.168300
     65 C31          7.8780     5.9440    -5.3500 c3         1 BV1      -0.103900
     66 C32          9.3460     6.2310    -5.0190 c3         1 BV1       0.107500
     67 C33          4.0220     5.2000     1.7230 c          1 BV1       0.454800
     68 O7           4.0330     4.7070     2.8420 o          1 BV1      -0.533600
     69 C34          3.6830     4.7690     0.3350 c          1 BV1       0.454800
     70 O8           3.4120     3.7330    -0.2410 o          1 BV1      -0.533600
     71 C35         -2.0130     3.3090     1.4950 c6         1 BV1       0.098600
     72 O9          -2.7220     2.1030     1.5920 oh         1 BV1      -0.574800
     73 C36         -0.9870     3.3170     0.3520 c6         1 BV1       0.122100
     74 O10         -1.5710     3.0120    -0.8820 oh         1 BV1      -0.577800
     75 C37          0.2080     2.4180     0.6800 c6         1 BV1       0.104100
     76 O11         -0.2490     1.0810     0.6710 oh         1 BV1      -0.589300
     77 HN9          9.6370     5.1770    -3.2800 hn         1 BV1       0.329000
     78 H44         11.0120     4.4340    -2.0070 ha         1 BV1       0.155000
     79 H40         11.3760     1.6490    -5.2410 ha         1 BV1       0.193500
     80 H42         12.3500     0.4620    -1.2170 ha         1 BV1       0.188000
     81 H45         13.7920     3.1110    -0.2100 h2         1 BV1       0.048200
     82 H46         10.7530     5.0480     0.2800 h1         1 BV1       0.046700
     83 H501        12.6130     7.4570     0.1400 h1         1 BV1       0.056200
     84 H502        10.8710     7.4850     0.3820 h1         1 BV1       0.056200
     85 H20         12.2320     6.6300    -1.9220 ho         1 BV1       0.421500
     86 H47         10.9440     6.0020     2.4700 h1         1 BV1       0.081200
     87 H17         13.7280     6.0320     2.0340 ho         1 BV1       0.414000
     88 H48         10.9150     3.6170     2.2200 h1         1 BV1       0.063200
     89 H18         12.0180     3.1240     4.1910 ho         1 BV1       0.426500
     90 H49         13.9570     3.7710     2.0950 h1         1 BV1       0.072700
     91 H19         13.8120     1.5740     2.0500 ho         1 BV1       0.424000
     92 HO1          3.1020     3.1780     3.3810 ho         1 BV1       0.421500
     93 H11A         2.6190     1.8290     1.6310 h1         1 BV1       0.056200
     94 H12          1.5510     0.9260     2.7050 h1         1 BV1       0.056200
     95 H3          -0.8830     4.6900     2.6930 h2         1 BV1       0.048200
     96 H5          -2.2390     6.1500     4.2390 ha         1 BV1       0.155000
     97 H7          -0.8060     5.9960     8.2780 ha         1 BV1       0.193500
     98 H9          -1.2840     2.3820     5.9870 ha         1 BV1       0.188000
     99 HN2         -1.2190     7.9550     4.4100 hn         1 BV1       0.329000
    100 H111        -1.4180    10.1980     4.2300 h1         1 BV1       0.058200
    101 H112        -1.7160    10.3910     5.9450 h1         1 BV1       0.058200
    102 H121         0.6130    11.0980     5.0200 hc         1 BV1       0.052700
    103 H122         0.5980    10.1810     6.5050 hc         1 BV1       0.052700
    104 H141         2.3850     9.6680     2.4500 h1         1 BV1       0.042075
    105 H142         0.9040    10.5850     2.7450 h1         1 BV1       0.042075
    106 H151        -0.3380     9.2850     1.1170 h1         1 BV1       0.036325
    107 H152         1.1450     9.9130     0.3890 h1         1 BV1       0.036325
    108 H161         1.1420     5.9280     1.5240 h1         1 BV1       0.036325
    109 H162        -0.3340     6.8450     1.8420 h1         1 BV1       0.036325
    110 H171         0.9330     6.5980     3.8940 h1         1 BV1       0.042075
    111 H172         2.4030     7.2240     3.1470 h1         1 BV1       0.042075
    112 H181        -0.2870     7.6130    -0.7260 h1         1 BV1       0.034200
    113 H182         0.9580     6.3830    -0.6430 h1         1 BV1       0.034200
    114 H191         1.3010     9.2170    -1.7360 hc         1 BV1       0.050950
    115 H192         1.3160     7.7070    -2.6100 hc         1 BV1       0.050950
    116 H201         3.3610     8.6820    -0.5660 h1         1 BV1       0.057700
    117 H202         3.6120     8.5230    -2.2970 h1         1 BV1       0.057700
    118 HN6          4.9270     7.4910     2.8100 hn         1 BV1       0.432800
    119 H231         5.2560     8.6760     0.1220 h1         1 BV1       0.057700
    120 H232         5.0570     9.6520     1.5650 h1         1 BV1       0.057700
    121 H241         7.4280     9.4550     0.8830 hc         1 BV1       0.050950
    122 H242         7.1770     8.8120     2.4850 hc         1 BV1       0.050950
    123 H261         8.7390     7.6300    -1.3870 h1         1 BV1       0.036325
    124 H262         7.3340     8.6840    -1.1980 h1         1 BV1       0.036325
    125 H271         5.9980     7.2930    -2.6970 h1         1 BV1       0.042075
    126 H272         7.5060     7.7910    -3.4750 h1         1 BV1       0.042075
    127 H281         7.2560     3.9230    -1.9820 h1         1 BV1       0.042075
    128 H282         5.8400     4.9650    -1.8140 h1         1 BV1       0.042075
    129 H291         7.0200     4.8300     0.3090 h1         1 BV1       0.036325
    130 H292         8.5550     5.2670    -0.4480 h1         1 BV1       0.036325
    131 H301         6.0290     5.3570    -4.4020 h1         1 BV1       0.036450
    132 H302         7.3370     4.2060    -4.2120 h1         1 BV1       0.036450
    133 H311         7.4080     6.8860    -5.6420 hc         1 BV1       0.052700
    134 H312         7.8130     5.2880    -6.2210 hc         1 BV1       0.052700
    135 H321         9.4230     7.1490    -4.4350 h1         1 BV1       0.058200
    136 H322         9.9160     6.3910    -5.9330 h1         1 BV1       0.058200
    137 H35         -2.7530     4.0930     1.3050 h1         1 BV1       0.072700
    138 HO9         -2.0970     1.3760     1.7020 ho         1 BV1       0.424000
    139 H36         -0.6020     4.3390     0.2610 h1         1 BV1       0.063200
    140 H10         -1.9280     2.1180    -0.8350 ho         1 BV1       0.426500
    141 H37          0.9830     2.5740    -0.0790 h1         1 BV1       0.081200
    142 H11          0.4840     0.4840     0.4930 ho         1 BV1       0.414000
    143 C25          7.5590     7.2870     1.0380 c3         1 BV1       0.172300
    144 N5           3.5430     6.7290    -1.2410 nu         1 BV1      -0.716500
    145 C13          1.2660     9.0290     4.8400 c3         1 BV1       0.168300
    146 H2           1.1570     3.8480     1.9480 h1         1 BV1       0.046700
    147 H131         2.3190     9.3470     4.8770 h1         1 BV1       0.036450
    148 O1           2.5870     2.3920     3.6290 oh         1 BV1      -0.592300
    149 H132         1.2080     8.1420     5.4770 h1         1 BV1       0.036450
    150 HN5          3.2760     6.0800    -1.9680 hn         1 BV1       0.432800
    151 H251         8.6590     7.3570     1.1160 h1         1 BV1       0.034200
    152 H252         7.2580     6.5350     1.7720 h1         1 BV1       0.034200
@<TRIPOS>BOND
     1     1     2 1   
     2     1    66 1   
     3     1    77 1   
     4     2     3 2   
     5     2     4 1   
     6     4     5 ar  
     7     4     6 ar  
     8     5    12 ar  
     9     5    78 1   
    10     6     7 ar  
    11     6    79 1   
    12     7     8 1   
    13     7    11 ar  
    14     8     9 1   
    15     8    10 1   
    16    11    12 ar  
    17    11    80 1   
    18    12    13 1   
    19    13    14 1   
    20    14    15 1   
    21    14    23 1   
    22    14    81 1   
    23    15    16 1   
    24    16    17 1   
    25    16    19 1   
    26    16    82 1   
    27    17    18 1   
    28    17    83 1   
    29    17    84 1   
    30    18    85 1   
    31    19    20 1   
    32    19    21 1   
    33    19    86 1   
    34    20    87 1   
    35    21    22 1   
    36    21    23 1   
    37    21    88 1   
    38    22    89 1   
    39    23    24 1   
    40    23    90 1   
    41    24    91 1   
    42    25    26 1   
    43    25    93 1   
    44    25    94 1   
    45    25   148 1   
    46    26    27 1   
    47    26    75 1   
    48    26   146 1   
    49    27    28 1   
    50    28    29 1   
    51    28    71 1   
    52    28    95 1   
    53    29    30 1   
    54    30    31 ar  
    55    30    35 ar  
    56    31    32 ar  
    57    31    96 1   
    58    32    33 ar  
    59    32    39 1   
    60    33    34 ar  
    61    33    97 1   
    62    34    35 ar  
    63    34    36 1   
    64    35    98 1   
    65    36    37 1   
    66    36    38 1   
    67    39    40 2   
    68    39    41 1   
    69    41    42 1   
    70    41    99 1   
    71    42    43 1   
    72    42   100 1   
    73    42   101 1   
    74    43   102 1   
    75    43   103 1   
    76    43   145 1   
    77    44    45 1   
    78    44    49 1   
    79    44   145 1   
    80    45    46 1   
    81    45   104 1   
    82    45   105 1   
    83    46    47 1   
    84    46   106 1   
    85    46   107 1   
    86    47    48 1   
    87    47    50 1   
    88    48    49 1   
    89    48   108 1   
    90    48   109 1   
    91    49   110 1   
    92    49   111 1   
    93    50    51 1   
    94    50   112 1   
    95    50   113 1   
    96    51    52 1   
    97    51   114 1   
    98    51   115 1   
    99    52   116 1   
   100    52   117 1   
   101    52   144 1   
   102    53    54 2   
   103    53    69 1   
   104    53   144 1   
   105    54    55 1   
   106    54    67 1   
   107    55    56 1   
   108    55   118 1   
   109    56    57 1   
   110    56   119 1   
   111    56   120 1   
   112    57   121 1   
   113    57   122 1   
   114    57   143 1   
   115    58    59 1   
   116    58    63 1   
   117    58   143 1   
   118    59    60 1   
   119    59   123 1   
   120    59   124 1   
   121    60    61 1   
   122    60   125 1   
   123    60   126 1   
   124    61    62 1   
   125    61    64 1   
   126    62    63 1   
   127    62   127 1   
   128    62   128 1   
   129    63   129 1   
   130    63   130 1   
   131    64    65 1   
   132    64   131 1   
   133    64   132 1   
   134    65    66 1   
   135    65   133 1   
   136    65   134 1   
   137    66   135 1   
   138    66   136 1   
   139    67    68 2   
   140    67    69 1   
   141    69    70 2   
   142    71    72 1   
   143    71    73 1   
   144    71   137 1   
   145    72   138 1   
   146    73    74 1   
   147    73    75 1   
   148    73   139 1   
   149    74   140 1   
   150    75    76 1   
   151    75   141 1   
   152    76   142 1   
   153    92   148 1   
   154   143   151 1   
   155   143   152 1   
   156   144   150 1   
   157   145   147 1   
   158   145   149 1   
@<TRIPOS>SUBSTRUCTURE
     1 BV1         1 TEMP              0 ****  ****    0 ROOT
