@<TRIPOS>MOLECULE
BV1
  152   158     1     0     0
SMALL
No Charge or Current Charge


@<TRIPOS>ATOM
      1 N9          11.1540     5.5560    -5.8190 ns         1 BV1      -0.480400
      2 C38         12.5070     5.5750    -5.5710 c          1 BV1       0.607700
      3 O12         13.3040     5.8980    -6.4420 o          1 BV1      -0.594100
      4 C39         12.9570     5.1340    -4.1950 ca         1 BV1      -0.152600
      5 C44         12.0700     4.5410    -3.2660 ca         1 BV1      -0.077000
      6 C40         14.3180     5.2740    -3.8430 ca         1 BV1      -0.007500
      7 C41         14.7940     4.8270    -2.5880 ca         1 BV1      -0.177700
      8 N10         16.2410     4.9820    -2.2300 no         1 BV1       0.694700
      9 O15         16.9950     5.5180    -3.0530 o          1 BV1      -0.391250
     10 O14         16.6170     4.5730    -1.1240 o          1 BV1      -0.391250
     11 C42         13.8940     4.2200    -1.6820 ca         1 BV1      -0.036000
     12 C43         12.5290     4.0790    -2.0210 ca         1 BV1       0.086100
     13 O13         11.6030     3.4730    -1.1910 os         1 BV1      -0.344100
     14 C45         11.9670     2.9340     0.0990 c6         1 BV1       0.355300
     15 O16         12.3620     4.0110     0.9920 os         1 BV1      -0.466500
     16 C46         11.2950     4.9450     1.3080 c6         1 BV1       0.096800
     17 C50         11.9180     6.1420     2.0900 c3         1 BV1       0.169600
     18 O20         13.1360     6.5750     1.4660 oh         1 BV1      -0.714500
     19 C47         10.1640     4.2060     2.0840 c6         1 BV1       0.127300
     20 O17         10.6780     3.6710     3.3280 oh         1 BV1      -0.711500
     21 C48          9.6310     3.0660     1.1500 c6         1 BV1       0.145300
     22 O18          8.5680     2.3120     1.7600 oh         1 BV1      -0.640000
     23 C49         10.7840     2.1060     0.7250 c6         1 BV1       0.121800
     24 O19         10.2590     1.0850    -0.1670 oh         1 BV1      -0.697000
     25 C1           1.0430     2.1920     3.6650 c3         1 BV1       0.169600
     26 C2          -0.1910     3.0560     3.2410 c6         1 BV1       0.096800
     27 O2          -1.0260     3.2920     4.4090 os         1 BV1      -0.466500
     28 C3          -2.1540     4.1720     4.1720 c6         1 BV1       0.355300
     29 O3          -2.9060     4.2830     5.4000 os         1 BV1      -0.344100
     30 C4          -2.4220     4.9920     6.4800 ca         1 BV1       0.086100
     31 C5          -1.8020     6.2500     6.3350 ca         1 BV1      -0.077000
     32 C6          -1.3820     6.9780     7.4800 ca         1 BV1      -0.152600
     33 C7          -1.5740     6.4080     8.7590 ca         1 BV1      -0.007500
     34 C8          -2.2040     5.1520     8.9110 ca         1 BV1      -0.177700
     35 C9          -2.6370     4.4570     7.7590 ca         1 BV1      -0.036000
     36 N1          -2.4190     4.5680    10.2730 no         1 BV1       0.694700
     37 O4          -2.0280     5.2120    11.2560 o          1 BV1      -0.391250
     38 O5          -2.9780     3.4660    10.3560 o          1 BV1      -0.391250
     39 C10         -0.7300     8.3410     7.3790 c          1 BV1       0.607700
     40 O6          -0.2000     8.8820     8.3410 o          1 BV1      -0.594100
     41 N2          -0.7430     8.9370     6.1400 ns         1 BV1      -0.480400
     42 C11          0.0590    10.1020     5.7580 c3         1 BV1       0.107500
     43 C12          1.5600     9.7590     5.6090 c3         1 BV1      -0.103900
     44 N3           1.1390     8.2970     3.5710 n3         1 BV1      -0.744600
     45 C14          1.7390     9.1600     2.5010 c6         1 BV1       0.165300
     46 C15          1.0310     8.9980     1.1160 c6         1 BV1       0.167300
     47 N4           0.9710     7.5690     0.6820 n3         1 BV1      -0.730600
     48 C16          0.3220     6.7470     1.7390 c6         1 BV1       0.167300
     49 C17          1.0670     6.8820     3.1040 c6         1 BV1       0.165300
     50 C18          0.3980     7.3480    -0.6650 c3         1 BV1       0.172300
     51 C19          1.2620     7.8890    -1.8320 c3         1 BV1      -0.107900
     52 C20          2.7590     7.5000    -1.7700 c3         1 BV1       0.228300
     53 C21          3.2140     5.4050    -0.4600 cc         1 BV1       0.031300
     54 C22          4.0020     5.6370     0.6660 cd         1 BV1       0.031300
     55 N6           4.9700     6.5670     1.0310 nu         1 BV1      -0.771700
     56 C23          5.6950     7.4610     0.1150 c3         1 BV1       0.228300
     57 C24          7.2180     7.3420     0.3180 c3         1 BV1      -0.107900
     58 N7           7.6860     5.9200    -1.7550 n3         1 BV1      -0.730600
     59 C26          8.4530     6.9340    -2.5420 c6         1 BV1       0.167300
     60 C27          8.2130     6.7930    -4.0780 c6         1 BV1       0.165300
     61 N8           8.5190     5.4200    -4.6030 n3         1 BV1      -0.744600
     62 C28          7.7870     4.4020    -3.7840 c6         1 BV1       0.165300
     63 C29          8.0330     4.5540    -2.2480 c6         1 BV1       0.167300
     64 C30          8.2160     5.2720    -6.0540 c3         1 BV1       0.168300
     65 C31          9.0510     6.1620    -7.0110 c3         1 BV1      -0.103900
     66 C32         10.5390     5.7710    -7.1250 c3         1 BV1       0.107500
     67 C33          3.4010     4.5070     1.4250 c          1 BV1       0.454800
     68 O7           3.4920     4.0260     2.5570 o          1 BV1      -0.533600
     69 C34          2.5350     4.2410     0.1720 c          1 BV1       0.454800
     70 O8           1.6350     3.4520    -0.1220 o          1 BV1      -0.533600
     71 C35         -3.0810     3.5660     3.0540 c6         1 BV1       0.121800
     72 O9          -3.6680     2.3040     3.4600 oh         1 BV1      -0.697000
     73 C36         -2.2200     3.3430     1.7670 c6         1 BV1       0.145300
     74 O10         -3.0190     2.8010     0.6980 oh         1 BV1      -0.640000
     75 C37         -1.0190     2.3950     2.0910 c6         1 BV1       0.127300
     76 O11         -1.5110     1.0820     2.4740 oh         1 BV1      -0.711500
     77 HN9         10.5270     5.3440    -5.0470 hn         1 BV1       0.329000
     78 H44         11.0200     4.3990    -3.5060 ha         1 BV1       0.137000
     79 H40         15.0060     5.7290    -4.5550 ha         1 BV1       0.175500
     80 H42         14.2630     3.8570    -0.7270 ha         1 BV1       0.170000
     81 H45         12.8200     2.2530    -0.0340 h2         1 BV1       0.048200
     82 H46         10.8950     5.3480     0.3670 h1         1 BV1       0.046700
     83 H501        12.1190     5.8310     3.1250 h1         1 BV1       0.056200
     84 H502        11.1860     6.9600     2.1280 h1         1 BV1       0.056200
     85 H20         13.5170     5.7470     1.0870 ho         1 BV1       0.520500
     86 H47          9.3420     4.9120     2.2790 h1         1 BV1       0.081200
     87 H17         11.6060     3.3960     3.1470 ho         1 BV1       0.513000
     88 H48          9.2490     3.5420     0.2350 h1         1 BV1       0.063200
     89 H18          8.5530     1.4630     1.2600 ho         1 BV1       0.465500
     90 H49         11.1780     1.6240     1.6320 h1         1 BV1       0.072700
     91 H19         11.0210     0.5550    -0.5020 ho         1 BV1       0.523000
     92 HO1          2.5940     3.3690     3.9140 ho         1 BV1       0.520500
     93 H11A         1.5610     1.8590     2.7540 h1         1 BV1       0.056200
     94 H12          0.6710     1.2910     4.1720 h1         1 BV1       0.056200
     95 H3          -1.7990     5.1600     3.8460 h2         1 BV1       0.048200
     96 H5          -1.6690     6.6620     5.3400 ha         1 BV1       0.137000
     97 H7          -1.2440     6.9590     9.6400 ha         1 BV1       0.175500
     98 H9          -3.1370     3.4940     7.8410 ha         1 BV1       0.170000
     99 HN2         -1.1990     8.4300     5.3950 hn         1 BV1       0.329000
    100 H111        -0.3180    10.4710     4.7950 h1         1 BV1       0.058200
    101 H112        -0.0720    10.9020     6.4990 h1         1 BV1       0.058200
    102 H121         2.0680    10.5790     5.0900 hc         1 BV1       0.052700
    103 H122         2.0110     9.6960     6.6070 hc         1 BV1       0.052700
    104 H141         2.8020     8.9070     2.3720 h1         1 BV1       0.042075
    105 H142         1.6950    10.2190     2.7900 h1         1 BV1       0.042075
    106 H151         0.0150     9.4130     1.1880 h1         1 BV1       0.036325
    107 H152         1.5760     9.6040     0.3790 h1         1 BV1       0.036325
    108 H161         0.3160     5.6900     1.4430 h1         1 BV1       0.036325
    109 H162        -0.7260     7.0530     1.8710 h1         1 BV1       0.036325
    110 H171         0.5490     6.2610     3.8490 h1         1 BV1       0.042075
    111 H172         2.0810     6.4720     2.9940 h1         1 BV1       0.042075
    112 H181        -0.6040     7.7940    -0.7280 h1         1 BV1       0.034200
    113 H182         0.2710     6.2680    -0.8270 h1         1 BV1       0.034200
    114 H191         1.1890     8.9820    -1.8560 hc         1 BV1       0.050950
    115 H192         0.8370     7.5320    -2.7770 hc         1 BV1       0.050950
    116 H201         3.2080     7.9940    -0.8980 h1         1 BV1       0.057700
    117 H202         3.2700     7.8830    -2.6630 h1         1 BV1       0.057700
    118 HN6          5.3170     6.5030     1.9920 hn         1 BV1       0.488000
    119 H231         5.4490     7.2350    -0.9310 h1         1 BV1       0.057700
    120 H232         5.3910     8.4990     0.3100 h1         1 BV1       0.057700
    121 H241         7.7030     8.2180    -0.1250 hc         1 BV1       0.050950
    122 H242         7.4490     7.3830     1.3890 hc         1 BV1       0.050950
    123 H261         9.5310     6.8310    -2.3420 h1         1 BV1       0.036325
    124 H262         8.1670     7.9540    -2.2520 h1         1 BV1       0.036325
    125 H271         7.1640     7.0500    -4.2870 h1         1 BV1       0.042075
    126 H272         8.8340     7.5480    -4.5780 h1         1 BV1       0.042075
    127 H281         8.0860     3.3880    -4.0860 h1         1 BV1       0.042075
    128 H282         6.7050     4.4820    -3.9660 h1         1 BV1       0.042075
    129 H291         7.4340     3.7970    -1.7220 h1         1 BV1       0.036325
    130 H292         9.0890     4.3330    -2.0360 h1         1 BV1       0.036325
    131 H301         7.1540     5.4960    -6.2250 h1         1 BV1       0.036450
    132 H302         8.3660     4.2260    -6.3560 h1         1 BV1       0.036450
    133 H311         8.9730     7.2140    -6.7170 hc         1 BV1       0.052700
    134 H312         8.6090     6.1010    -8.0120 hc         1 BV1       0.052700
    135 H321        11.0820     6.5560    -7.6680 h1         1 BV1       0.058200
    136 H322        10.6240     4.8380    -7.6990 h1         1 BV1       0.058200
    137 H35         -3.8690     4.3010     2.8300 h1         1 BV1       0.072700
    138 HO9         -2.9150     1.6590     3.3360 ho         1 BV1       0.523000
    139 H36         -1.8140     4.3170     1.4550 h1         1 BV1       0.063200
    140 H10         -3.3150     1.9180     1.0140 ho         1 BV1       0.465500
    141 H37         -0.3860     2.3240     1.1930 h1         1 BV1       0.081200
    142 H11         -0.8610     0.4130     2.1490 ho         1 BV1       0.513000
    143 C25          7.8260     6.0540    -0.2850 c3         1 BV1       0.172300
    144 N5           2.9400     6.0410    -1.6740 nu         1 BV1      -0.771700
    145 C13          1.8250     8.4220     4.8780 c3         1 BV1       0.168300
    146 H2           0.1910     4.0220     2.8850 h1         1 BV1       0.046700
    147 H131         2.9090     8.2940     4.7500 h1         1 BV1       0.036450
    148 O1           1.9610     2.8980     4.5210 oh         1 BV1      -0.714500
    149 H132         1.4950     7.6110     5.5420 h1         1 BV1       0.036450
    150 HN5          2.3610     5.4910    -2.3140 hn         1 BV1       0.488000
    151 H251         8.8880     6.0240    -0.0170 h1         1 BV1       0.034200
    152 H252         7.3470     5.1970     0.2090 h1         1 BV1       0.034200
@<TRIPOS>BOND
     1     1     2 1   
     2     1    66 1   
     3     1    77 1   
     4     2     3 2   
     5     2     4 1   
     6     4     5 ar  
     7     4     6 ar  
     8     5    12 ar  
     9     5    78 1   
    10     6     7 ar  
    11     6    79 1   
    12     7     8 1   
    13     7    11 ar  
    14     8     9 1   
    15     8    10 1   
    16    11    12 ar  
    17    11    80 1   
    18    12    13 1   
    19    13    14 1   
    20    14    15 1   
    21    14    23 1   
    22    14    81 1   
    23    15    16 1   
    24    16    17 1   
    25    16    19 1   
    26    16    82 1   
    27    17    18 1   
    28    17    83 1   
    29    17    84 1   
    30    18    85 1   
    31    19    20 1   
    32    19    21 1   
    33    19    86 1   
    34    20    87 1   
    35    21    22 1   
    36    21    23 1   
    37    21    88 1   
    38    22    89 1   
    39    23    24 1   
    40    23    90 1   
    41    24    91 1   
    42    25    26 1   
    43    25    93 1   
    44    25    94 1   
    45    25   148 1   
    46    26    27 1   
    47    26    75 1   
    48    26   146 1   
    49    27    28 1   
    50    28    29 1   
    51    28    71 1   
    52    28    95 1   
    53    29    30 1   
    54    30    31 ar  
    55    30    35 ar  
    56    31    32 ar  
    57    31    96 1   
    58    32    33 ar  
    59    32    39 1   
    60    33    34 ar  
    61    33    97 1   
    62    34    35 ar  
    63    34    36 1   
    64    35    98 1   
    65    36    37 1   
    66    36    38 1   
    67    39    40 2   
    68    39    41 1   
    69    41    42 1   
    70    41    99 1   
    71    42    43 1   
    72    42   100 1   
    73    42   101 1   
    74    43   102 1   
    75    43   103 1   
    76    43   145 1   
    77    44    45 1   
    78    44    49 1   
    79    44   145 1   
    80    45    46 1   
    81    45   104 1   
    82    45   105 1   
    83    46    47 1   
    84    46   106 1   
    85    46   107 1   
    86    47    48 1   
    87    47    50 1   
    88    48    49 1   
    89    48   108 1   
    90    48   109 1   
    91    49   110 1   
    92    49   111 1   
    93    50    51 1   
    94    50   112 1   
    95    50   113 1   
    96    51    52 1   
    97    51   114 1   
    98    51   115 1   
    99    52   116 1   
   100    52   117 1   
   101    52   144 1   
   102    53    54 2   
   103    53    69 1   
   104    53   144 1   
   105    54    55 1   
   106    54    67 1   
   107    55    56 1   
   108    55   118 1   
   109    56    57 1   
   110    56   119 1   
   111    56   120 1   
   112    57   121 1   
   113    57   122 1   
   114    57   143 1   
   115    58    59 1   
   116    58    63 1   
   117    58   143 1   
   118    59    60 1   
   119    59   123 1   
   120    59   124 1   
   121    60    61 1   
   122    60   125 1   
   123    60   126 1   
   124    61    62 1   
   125    61    64 1   
   126    62    63 1   
   127    62   127 1   
   128    62   128 1   
   129    63   129 1   
   130    63   130 1   
   131    64    65 1   
   132    64   131 1   
   133    64   132 1   
   134    65    66 1   
   135    65   133 1   
   136    65   134 1   
   137    66   135 1   
   138    66   136 1   
   139    67    68 2   
   140    67    69 1   
   141    69    70 2   
   142    71    72 1   
   143    71    73 1   
   144    71   137 1   
   145    72   138 1   
   146    73    74 1   
   147    73    75 1   
   148    73   139 1   
   149    74   140 1   
   150    75    76 1   
   151    75   141 1   
   152    76   142 1   
   153    92   148 1   
   154   143   151 1   
   155   143   152 1   
   156   144   150 1   
   157   145   147 1   
   158   145   149 1   
@<TRIPOS>SUBSTRUCTURE
     1 BV1         1 TEMP              0 ****  ****    0 ROOT
