@<TRIPOS>MOLECULE
BV5
   44    45     1     0     0
SMALL
bcc


@<TRIPOS>ATOM
      1 C1          -3.7940     0.5150    -2.6690 ca         1 BV5      -0.058000
      2 C2          -3.4960     1.8490    -2.4400 ca         1 BV5      -0.143000
      3 C3          -2.8390     2.2200    -1.2780 ca         1 BV5      -0.002000
      4 C4          -2.4740     1.2500    -0.3570 ca         1 BV5      -0.270500
      5 C5          -2.7690    -0.0890    -0.5970 ca         1 BV5       0.198100
      6 C6          -3.4340    -0.4620    -1.7500 ca         1 BV5      -0.164000
      7 O7          -2.4020    -1.0050     0.3650 os         1 BV5      -0.385900
      8 C8          -1.5440    -1.9930     0.0460 c3         1 BV5       0.861700
      9 F9          -0.5650    -1.5740    -0.7540 f          1 BV5      -0.223967
     10 F10         -1.0140    -2.4400     1.1710 f          1 BV5      -0.223967
     11 F11         -2.1440    -3.0130    -0.5620 f          1 BV5      -0.223967
     12 S12         -1.7290     1.7620     1.1660 sy         1 BV5       1.333900
     13 O13         -1.4910     3.1870     1.0850 o          1 BV5      -0.592300
     14 O14         -2.4770     1.2230     2.2840 o          1 BV5      -0.592300
     15 N15         -0.2750     0.9440     1.2000 ns         1 BV5      -0.667300
     16 C16          0.7260     1.1270     0.2660 c          1 BV5       0.701100
     17 O17          0.5580     1.8370    -0.6970 o          1 BV5      -0.546100
     18 C18          1.9810     0.3590     0.5790 c3         1 BV5      -0.156400
     19 C19          3.0130     0.3850    -0.5370 c3         1 BV5      -0.061400
     20 C20          4.1880    -0.5530    -0.2690 c6         1 BV5      -0.063700
     21 C21          5.1420    -0.5930    -1.4620 c6         1 BV5      -0.073400
     22 C22          6.3340    -1.4980    -1.1900 c6         1 BV5       0.159800
     23 N23          7.0290    -1.0620     0.0080 n7         1 BV5      -0.805200
     24 C24          6.1680    -1.1150     1.1760 c6         1 BV5       0.159800
     25 C25          4.9730    -0.1910     0.9910 c6         1 BV5      -0.073400
     26 H1          -4.3150     0.2210    -3.5700 ha         1 BV5       0.143000
     27 H2          -3.7790     2.6030    -3.1600 ha         1 BV5       0.147000
     28 H6          -3.6890    -1.4960    -1.9370 ha         1 BV5       0.156000
     29 H3          -2.6090     3.2600    -1.0950 ha         1 BV5       0.173000
     30 H15         -0.1160     0.3740     2.0230 hn         1 BV5       0.350500
     31 H181         2.3880     0.7780     1.5050 hc         1 BV5       0.066700
     32 H182         1.7110    -0.6730     0.8250 hc         1 BV5       0.066700
     33 H191         2.5420     0.0890    -1.4780 hc         1 BV5       0.058200
     34 H192         3.3840     1.4040    -0.6820 hc         1 BV5       0.058200
     35 H20          3.7830    -1.5660    -0.1320 hc         1 BV5       0.040700
     36 H211         4.6170    -0.9430    -2.3540 hc         1 BV5       0.046950
     37 H212         5.5000     0.4200    -1.6770 hc         1 BV5       0.046950
     38 H251         5.3240     0.8450     0.9160 hc         1 BV5       0.046950
     39 H252         4.3390    -0.2480     1.8790 hc         1 BV5       0.046950
     40 H221         5.9760    -2.5390    -1.1140 h1         1 BV5       0.028700
     41 H222         7.0280    -1.4650    -2.0320 h1         1 BV5       0.028700
     42 H23          7.8370    -1.6520     0.1620 hn         1 BV5       0.354800
     43 H241         5.7950    -2.1330     1.3790 h1         1 BV5       0.028700
     44 H242         6.7430    -0.8090     2.0530 h1         1 BV5       0.028700
@<TRIPOS>BOND
     1     1     2 ar  
     2     1     6 ar  
     3     1    26 1   
     4     2     3 ar  
     5     2    27 1   
     6     3     4 ar  
     7     3    29 1   
     8     4     5 ar  
     9     4    12 1   
    10     5     6 ar  
    11     5     7 1   
    12     6    28 1   
    13     7     8 1   
    14     8     9 1   
    15     8    10 1   
    16     8    11 1   
    17    12    13 2   
    18    12    14 2   
    19    12    15 1   
    20    15    16 1   
    21    15    30 1   
    22    16    17 2   
    23    16    18 1   
    24    18    19 1   
    25    18    31 1   
    26    18    32 1   
    27    19    20 1   
    28    19    33 1   
    29    19    34 1   
    30    20    21 1   
    31    20    25 1   
    32    20    35 1   
    33    21    22 1   
    34    21    36 1   
    35    21    37 1   
    36    22    23 1   
    37    22    40 1   
    38    22    41 1   
    39    23    24 1   
    40    23    42 1   
    41    24    25 1   
    42    24    43 1   
    43    24    44 1   
    44    25    38 1   
    45    25    39 1   
@<TRIPOS>SUBSTRUCTURE
     1 BV5         1 TEMP              0 ****  ****    0 ROOT
