@<TRIPOS>MOLECULE
BV5
   44    45     1     0     0
SMALL
No Charge or Current Charge


@<TRIPOS>ATOM
      1 C1          -2.7270     0.9290    -3.0860 ca         1 BV5      -0.040000
      2 C2          -3.1060     2.0980    -2.4110 ca         1 BV5      -0.125000
      3 C3          -2.8810     2.2170    -1.0310 ca         1 BV5       0.016000
      4 C4          -2.2750     1.1600    -0.3170 ca         1 BV5      -0.270500
      5 C5          -1.8840    -0.0160    -0.9910 ca         1 BV5       0.198100
      6 C6          -2.1180    -0.1230    -2.3820 ca         1 BV5      -0.146000
      7 O7          -1.2680    -1.0180    -0.2620 os         1 BV5      -0.409100
      8 C8          -0.8140    -2.2680    -0.8160 c3         1 BV5       0.521000
      9 F9           0.1200    -2.0920    -1.7780 f          1 BV5      -0.102667
     10 F10         -0.2470    -3.0310     0.1430 f          1 BV5      -0.102667
     11 F11         -1.8290    -2.9900    -1.3440 f          1 BV5      -0.102667
     12 S12         -1.9980     1.3350     1.4530 sy         1 BV5       1.192300
     13 O13         -2.2590     2.7270     1.8390 o          1 BV5      -0.521500
     14 O14         -2.6580     0.2250     2.1490 o          1 BV5      -0.521500
     15 N15         -0.3640     1.0720     1.6820 ns         1 BV5      -0.600300
     16 C16          0.6560     1.7050     1.0520 c          1 BV5       0.634100
     17 O17          0.5010     2.7090     0.3750 o          1 BV5      -0.546100
     18 C18          2.0310     1.0710     1.2700 c3         1 BV5      -0.156400
     19 C19          2.4800     0.2770     0.0170 c3         1 BV5      -0.061400
     20 C20          3.7710    -0.5770     0.1950 c6         1 BV5      -0.063700
     21 C21          4.0450    -1.4450    -1.0650 c6         1 BV5      -0.073400
     22 C22          5.3430    -2.2740    -0.9100 c6         1 BV5       0.159800
     23 N23          6.5040    -1.4050    -0.6040 n7         1 BV5      -0.860400
     24 C24          6.3000    -0.5940     0.6200 c6         1 BV5       0.159800
     25 C25          5.0270     0.2830     0.5150 c6         1 BV5      -0.073400
     26 H1          -2.9030     0.8390    -4.1560 ha         1 BV5       0.125000
     27 H2          -3.5750     2.9130    -2.9570 ha         1 BV5       0.129000
     28 H6          -1.8360    -1.0090    -2.9410 ha         1 BV5       0.138000
     29 H3          -3.1840     3.1330    -0.5250 ha         1 BV5       0.155000
     30 H15         -0.1960     0.2050     2.1610 hn         1 BV5       0.350500
     31 H181         2.7560     1.8700     1.4650 hc         1 BV5       0.066700
     32 H182         1.9940     0.3810     2.1220 hc         1 BV5       0.066700
     33 H191         1.6560    -0.3860    -0.2730 hc         1 BV5       0.058200
     34 H192         2.6090     0.9780    -0.8180 hc         1 BV5       0.058200
     35 H20          3.5860    -1.2530     1.0430 hc         1 BV5       0.040700
     36 H211         3.2000    -2.1220    -1.2480 hc         1 BV5       0.046950
     37 H212         4.1270    -0.8020    -1.9520 hc         1 BV5       0.046950
     38 H251         5.1710     1.0420    -0.2670 hc         1 BV5       0.046950
     39 H252         4.8920     0.8260     1.4590 hc         1 BV5       0.046950
     40 H221         5.2140    -3.0090    -0.1010 h1         1 BV5       0.028700
     41 H222         5.5380    -2.8320    -1.8380 h1         1 BV5       0.028700
     42 H23          7.3350    -1.9960    -0.4750 hn         1 BV5       0.410000
     43 H241         6.2110    -1.2630     1.4900 h1         1 BV5       0.028700
     44 H242         7.1780     0.0490     0.7840 h1         1 BV5       0.028700
@<TRIPOS>BOND
     1     1     2 ar  
     2     1     6 ar  
     3     1    26 1   
     4     2     3 ar  
     5     2    27 1   
     6     3     4 ar  
     7     3    29 1   
     8     4     5 ar  
     9     4    12 1   
    10     5     6 ar  
    11     5     7 1   
    12     6    28 1   
    13     7     8 1   
    14     8     9 1   
    15     8    10 1   
    16     8    11 1   
    17    12    13 2   
    18    12    14 2   
    19    12    15 1   
    20    15    16 1   
    21    15    30 1   
    22    16    17 2   
    23    16    18 1   
    24    18    19 1   
    25    18    31 1   
    26    18    32 1   
    27    19    20 1   
    28    19    33 1   
    29    19    34 1   
    30    20    21 1   
    31    20    25 1   
    32    20    35 1   
    33    21    22 1   
    34    21    36 1   
    35    21    37 1   
    36    22    23 1   
    37    22    40 1   
    38    22    41 1   
    39    23    24 1   
    40    23    42 1   
    41    24    25 1   
    42    24    43 1   
    43    24    44 1   
    44    25    38 1   
    45    25    39 1   
@<TRIPOS>SUBSTRUCTURE
     1 BV5         1 TEMP              0 ****  ****    0 ROOT
