@<TRIPOS>MOLECULE
BV6
   57    59     1     0     0
SMALL
abcg2


@<TRIPOS>ATOM
      1 C1          27.8310    31.4840    35.8580 ca         1 BV6       0.195100
      2 C2          27.5520    32.6990    35.2310 ca         1 BV6      -0.180500
      3 C3          27.7870    33.8830    35.9040 ca         1 BV6      -0.011000
      4 C4          28.2840    33.8580    37.1990 ca         1 BV6      -0.226200
      5 C5          28.5540    32.6520    37.8370 ca         1 BV6      -0.011000
      6 O5          28.9310    35.0520    39.0330 o          1 BV6      -0.409000
      7 C6          28.3290    31.4730    37.1640 ca         1 BV6      -0.180500
      8 O6          28.2920    36.1370    37.3100 o          1 BV6      -0.409000
      9 C1A         25.4350    26.0830    35.0980 c6         1 BV6       0.311300
     10 C2A         25.0960    25.8680    36.5850 c6         1 BV6       0.167300
     11 C3A         24.1800    24.6660    36.7460 c6         1 BV6       0.135300
     12 C4A         22.9580    24.9300    35.8790 c6         1 BV6       0.109300
     13 C5A         23.3700    24.9260    34.4030 c6         1 BV6       0.109300
     14 C6A         22.4220    25.7150    33.5100 c3         1 BV6       0.147600
     15 O2A         26.3150    25.7410    37.2670 oh         1 BV6      -0.706000
     16 O4A         21.9980    23.9250    36.1200 oh         1 BV6      -0.726000
     17 O5A         24.7340    25.2840    34.1990 os         1 BV6      -0.453000
     18 O6A         22.2200    27.0500    33.8880 oh         1 BV6      -0.732000
     19 C1B         27.3490    30.1820    33.9420 c6         1 BV6       0.400300
     20 C2B         27.6080    28.7330    33.4550 c6         1 BV6       0.162300
     21 C3B         26.2730    28.0250    33.2260 c6         1 BV6       0.034300
     22 C4B         25.5250    28.7940    32.1460 c6         1 BV6       0.159300
     23 C5B         25.3900    30.2780    32.5670 c6         1 BV6       0.140300
     24 C6B         25.9080    31.2050    31.4830 c3         1 BV6       0.132600
     25 O1B         27.6570    30.2760    35.2990 os         1 BV6      -0.286100
     26 O2B         28.4500    28.0730    34.3490 oh         1 BV6      -0.665000
     27 O4B         24.2920    28.1730    31.9010 oh         1 BV6      -0.702000
     28 O5B         25.9980    30.5130    33.8250 os         1 BV6      -0.444000
     29 N4          28.5180    35.1030    37.8960 no         1 BV6       0.702200
     30 S1A         25.3120    27.8780    34.7670 ss         1 BV6      -0.379000
     31 O3A         23.8510    24.5730    38.1080 oh         1 BV6      -0.664000
     32 H1          27.1320    32.7490    34.2360 ha         1 BV6       0.146500
     33 H2          27.5670    34.8190    35.4110 ha         1 BV6       0.149000
     34 H3          28.9410    32.6260    38.8450 ha         1 BV6       0.149000
     35 H4          28.5400    30.5260    37.6440 ha         1 BV6       0.146500
     36 H5          26.4840    25.8140    34.9580 h2         1 BV6       0.105700
     37 H6          24.5330    26.7350    36.9680 h1         1 BV6       0.060700
     38 H7          24.6920    23.7530    36.4020 h1         1 BV6       0.064700
     39 H8          22.5550    25.9140    36.1540 h1         1 BV6       0.069700
     40 H9          23.3130    23.8840    34.0690 h1         1 BV6       0.080700
     41 H10         22.7690    25.6300    32.4720 h1         1 BV6       0.046700
     42 H11         21.4490    25.2170    33.5540 h1         1 BV6       0.046700
     43 H12         26.1370    25.7620    38.2130 ho         1 BV6       0.527000
     44 H13         21.1190    24.3050    36.0390 ho         1 BV6       0.518000
     45 H14         23.0320    27.5400    33.7000 ho         1 BV6       0.535000
     46 H15         27.9810    30.8810    33.3770 h2         1 BV6       0.041700
     47 H16         28.0870    28.8180    32.4670 h1         1 BV6       0.028700
     48 H17         26.4630    27.0140    32.8580 h1         1 BV6       0.089700
     49 H18         26.1520    28.7380    31.2430 h1         1 BV6       0.029700
     50 H19         24.3320    30.4900    32.7410 h1         1 BV6       0.111700
     51 H20         26.9550    30.9650    31.2460 h1         1 BV6       0.020200
     52 H21         25.3310    30.9920    30.5720 h1         1 BV6       0.020200
     53 H22         28.7960    27.2910    33.9080 ho         1 BV6       0.505000
     54 H23         23.8910    28.5670    31.1200 ho         1 BV6       0.513000
     55 H24         26.1630    33.1100    31.2460 ho         1 BV6       0.510000
     56 H25         23.2070    23.8640    38.2120 ho         1 BV6       0.466000
     57 O6B         25.7620    32.5360    31.9060 oh         1 BV6      -0.703000
@<TRIPOS>BOND
     1     1     2 ar  
     2     1     7 ar  
     3     1    25 1   
     4     2     3 ar  
     5     2    32 1   
     6     3     4 ar  
     7     3    33 1   
     8     4     5 ar  
     9     4    29 1   
    10     5     7 ar  
    11     5    34 1   
    12     6    29 1   
    13     7    35 1   
    14     8    29 1   
    15     9    10 1   
    16     9    17 1   
    17     9    30 1   
    18     9    36 1   
    19    10    11 1   
    20    10    15 1   
    21    10    37 1   
    22    11    12 1   
    23    11    31 1   
    24    11    38 1   
    25    12    13 1   
    26    12    16 1   
    27    12    39 1   
    28    13    14 1   
    29    13    17 1   
    30    13    40 1   
    31    14    18 1   
    32    14    41 1   
    33    14    42 1   
    34    15    43 1   
    35    16    44 1   
    36    18    45 1   
    37    19    20 1   
    38    19    25 1   
    39    19    28 1   
    40    19    46 1   
    41    20    21 1   
    42    20    26 1   
    43    20    47 1   
    44    21    22 1   
    45    21    30 1   
    46    21    48 1   
    47    22    23 1   
    48    22    27 1   
    49    22    49 1   
    50    23    24 1   
    51    23    28 1   
    52    23    50 1   
    53    24    51 1   
    54    24    52 1   
    55    24    57 1   
    56    26    53 1   
    57    27    54 1   
    58    31    56 1   
    59    55    57 1   
@<TRIPOS>SUBSTRUCTURE
     1 BV6         1 TEMP              0 ****  ****    0 ROOT
