@<TRIPOS>MOLECULE
BV6
   57    59     1     0     0
SMALL
No Charge or Current Charge


@<TRIPOS>ATOM
      1 C1          27.8380    31.5300    35.8340 ca         1 BV6       0.195100
      2 C2          27.8750    32.7670    35.1540 ca         1 BV6      -0.180500
      3 C3          28.1000    33.9600    35.8640 ca         1 BV6      -0.011000
      4 C4          28.2960    33.9330    37.2640 ca         1 BV6      -0.226200
      5 C5          28.2630    32.6910    37.9390 ca         1 BV6      -0.011000
      6 O5          28.7030    35.1310    39.2460 o          1 BV6      -0.409000
      7 C6          28.0360    31.5040    37.2220 ca         1 BV6      -0.180500
      8 O6          28.5590    36.2660    37.3890 o          1 BV6      -0.409000
      9 C1A         25.5060    26.1400    35.2260 c6         1 BV6       0.311300
     10 C2A         25.2760    25.6690    36.7060 c6         1 BV6       0.167300
     11 C3A         24.3670    24.4090    36.7700 c6         1 BV6       0.135300
     12 C4A         23.0740    24.7080    35.9720 c6         1 BV6       0.109300
     13 C5A         23.4300    24.9100    34.4610 c6         1 BV6       0.109300
     14 C6A         22.4290    25.8290    33.6790 c3         1 BV6       0.147600
     15 O2A         26.5140    25.4250    37.4080 oh         1 BV6      -0.706000
     16 O4A         22.1020    23.6550    36.1600 oh         1 BV6      -0.726000
     17 O5A         24.8280    25.2940    34.2500 os         1 BV6      -0.453000
     18 O6A         22.2860    27.1570    34.2010 oh         1 BV6      -0.732000
     19 C1B         27.3380    30.2540    33.7880 c6         1 BV6       0.400300
     20 C2B         27.3630    28.7440    33.3220 c6         1 BV6       0.162300
     21 C3B         25.9300    28.1430    33.2540 c6         1 BV6       0.034300
     22 C4B         25.0640    28.9730    32.2420 c6         1 BV6       0.159300
     23 C5B         25.3740    30.5150    32.3200 c6         1 BV6       0.140300
     24 C6B         26.2190    31.0370    31.1020 c3         1 BV6       0.132600
     25 O1B         27.6320    30.3220    35.1990 os         1 BV6      -0.286100
     26 O2B         28.2590    27.9260    34.1070 oh         1 BV6      -0.665000
     27 O4B         23.6630    28.7060    32.4480 oh         1 BV6      -0.702000
     28 O5B         26.0320    30.8500    33.5710 os         1 BV6      -0.444000
     29 N4          28.5370    35.2020    38.0210 no         1 BV6       0.702200
     30 S1A         25.1520    27.9360    34.9410 ss         1 BV6      -0.379000
     31 O3A         24.0400    24.0830    38.1320 oh         1 BV6      -0.664000
     32 H1          27.7270    32.8280    34.0800 ha         1 BV6       0.146500
     33 H2          28.1200    34.9010    35.3160 ha         1 BV6       0.149000
     34 H3          28.4110    32.6360    39.0170 ha         1 BV6       0.149000
     35 H4          28.0120    30.5540    37.7480 ha         1 BV6       0.146500
     36 H5          26.5860    26.0490    35.0360 h2         1 BV6       0.105700
     37 H6          24.7350    26.4800    37.2160 h1         1 BV6       0.060700
     38 H7          24.8870    23.5640    36.2920 h1         1 BV6       0.064700
     39 H8          22.6650    25.6560    36.3570 h1         1 BV6       0.069700
     40 H9          23.3320    23.9240    33.9850 h1         1 BV6       0.080700
     41 H10         22.7580    25.8720    32.6320 h1         1 BV6       0.046700
     42 H11         21.4510    25.3280    33.6800 h1         1 BV6       0.046700
     43 H12         26.2520    24.9190    38.2150 ho         1 BV6       0.527000
     44 H13         21.2300    23.9960    35.8460 ho         1 BV6       0.518000
     45 H14         22.9710    27.7160    33.7300 ho         1 BV6       0.535000
     46 H15         28.1080    30.8040    33.2280 h2         1 BV6       0.041700
     47 H16         27.7440    28.7430    32.2910 h1         1 BV6       0.028700
     48 H17         26.0170    27.1330    32.8300 h1         1 BV6       0.089700
     49 H18         25.3400    28.6340    31.2330 h1         1 BV6       0.029700
     50 H19         24.4200    31.0620    32.2950 h1         1 BV6       0.111700
     51 H20         27.1050    30.4030    30.9760 h1         1 BV6       0.020200
     52 H21         25.6100    30.9150    30.1970 h1         1 BV6       0.020200
     53 H22         28.1940    28.2660    35.0300 ho         1 BV6       0.505000
     54 H23         23.1860    29.0380    31.6500 ho         1 BV6       0.513000
     55 H24         27.0510    32.6760    30.3900 ho         1 BV6       0.510000
     56 H25         23.1850    23.5960    38.0610 ho         1 BV6       0.466000
     57 O6B         26.6180    32.4120    31.2360 oh         1 BV6      -0.703000
@<TRIPOS>BOND
     1     1     2 ar  
     2     1     7 ar  
     3     1    25 1   
     4     2     3 ar  
     5     2    32 1   
     6     3     4 ar  
     7     3    33 1   
     8     4     5 ar  
     9     4    29 1   
    10     5     7 ar  
    11     5    34 1   
    12     6    29 1   
    13     7    35 1   
    14     8    29 1   
    15     9    10 1   
    16     9    17 1   
    17     9    30 1   
    18     9    36 1   
    19    10    11 1   
    20    10    15 1   
    21    10    37 1   
    22    11    12 1   
    23    11    31 1   
    24    11    38 1   
    25    12    13 1   
    26    12    16 1   
    27    12    39 1   
    28    13    14 1   
    29    13    17 1   
    30    13    40 1   
    31    14    18 1   
    32    14    41 1   
    33    14    42 1   
    34    15    43 1   
    35    16    44 1   
    36    18    45 1   
    37    19    20 1   
    38    19    25 1   
    39    19    28 1   
    40    19    46 1   
    41    20    21 1   
    42    20    26 1   
    43    20    47 1   
    44    21    22 1   
    45    21    30 1   
    46    21    48 1   
    47    22    23 1   
    48    22    27 1   
    49    22    49 1   
    50    23    24 1   
    51    23    28 1   
    52    23    50 1   
    53    24    51 1   
    54    24    52 1   
    55    24    57 1   
    56    26    53 1   
    57    27    54 1   
    58    31    56 1   
    59    55    57 1   
@<TRIPOS>SUBSTRUCTURE
     1 BV6         1 TEMP              0 ****  ****    0 ROOT
