@<TRIPOS>MOLECULE
BV7
   25    25     1     0     0
SMALL
No Charge or Current Charge


@<TRIPOS>ATOM
      1 C1          -1.7470    -1.3280    -0.1610 c6         1 BV7      -0.072900
      2 C2          -3.2090    -0.9340    -0.4880 c6         1 BV7       0.159300
      3 N3          -3.6460     0.2320     0.3130 n7         1 BV7      -0.861400
      4 C4          -2.7730     1.4120     0.1180 c6         1 BV7       0.159300
      5 C5          -1.2950     1.0910     0.4570 c6         1 BV7      -0.072900
      6 C6          -0.7770    -0.1300    -0.3580 c6         1 BV7      -0.062700
      7 C7           0.6890    -0.5280     0.0020 c3         1 BV7      -0.050400
      8 C8           1.7660     0.5500    -0.2880 c3         1 BV7      -0.205400
      9 C9           3.1720    -0.0240    -0.0390 c          1 BV7       0.716000
     10 O10          3.6410     0.0620     1.0860 o          1 BV7      -0.743500
     11 O11          3.7390    -0.5840    -0.9660 o          1 BV7      -0.743500
     12 H11C        -1.6900    -1.6910     0.8740 hc         1 BV7       0.046200
     13 H12C        -1.4450    -2.1680    -0.8020 hc         1 BV7       0.046200
     14 H21C        -3.2930    -0.6920    -1.5570 h1         1 BV7       0.015950
     15 H22C        -3.8750    -1.7860    -0.2850 h1         1 BV7       0.015950
     16 H6          -0.7760     0.1390    -1.4240 hc         1 BV7       0.029700
     17 H3          -4.6030     0.4810     0.0370 hn         1 BV7       0.390000
     18 H41C        -2.8430     1.7450    -0.9280 h1         1 BV7       0.015950
     19 H42C        -3.1270     2.2360     0.7540 h1         1 BV7       0.015950
     20 H51C        -0.6840     1.9790     0.2490 hc         1 BV7       0.046200
     21 H52C        -1.2010     0.8910     1.5330 hc         1 BV7       0.046200
     22 H71C         0.7470    -0.8070     1.0610 hc         1 BV7       0.041200
     23 H72C         0.9570    -1.4320    -0.5610 hc         1 BV7       0.041200
     24 H81C         1.6450     0.8210    -1.3440 hc         1 BV7       0.014700
     25 H82C         1.5680     1.3760     0.4060 hc         1 BV7       0.014700
@<TRIPOS>BOND
     1     1     2 1   
     2     1     6 1   
     3     1    12 1   
     4     1    13 1   
     5     2     3 1   
     6     2    14 1   
     7     2    15 1   
     8     3     4 1   
     9     3    17 1   
    10     4     5 1   
    11     4    18 1   
    12     4    19 1   
    13     5     6 1   
    14     5    20 1   
    15     5    21 1   
    16     6     7 1   
    17     6    16 1   
    18     7     8 1   
    19     7    22 1   
    20     7    23 1   
    21     8     9 1   
    22     8    24 1   
    23     8    25 1   
    24     9    10 1   
    25     9    11 1   
@<TRIPOS>SUBSTRUCTURE
     1 BV7         1 TEMP              0 ****  ****    0 ROOT
