@<TRIPOS>MOLECULE
BV7
   25    25     1     0     0
SMALL
abcg2


@<TRIPOS>ATOM
      1 C1          -1.7740    -1.3130    -0.0590 c6         1 BV7      -0.072900
      2 C2          -3.1980    -0.9040    -0.4050 c6         1 BV7       0.159300
      3 N3          -3.5670     0.2830     0.3450 n7         1 BV7      -0.861400
      4 C4          -2.7070     1.4080     0.0210 c6         1 BV7       0.159300
      5 C5          -1.2640     1.0860     0.3780 c6         1 BV7      -0.072900
      6 C6          -0.7830    -0.1810    -0.3300 c6         1 BV7      -0.062700
      7 C7           0.6380    -0.5810     0.0600 c3         1 BV7      -0.050400
      8 C8           1.7010     0.4180    -0.3680 c3         1 BV7      -0.205400
      9 C9           3.1560     0.0390    -0.0420 c          1 BV7       0.716000
     10 O10          3.3630    -1.0390     0.5500 o          1 BV7      -0.743500
     11 O11          4.0270     0.8590    -0.4030 o          1 BV7      -0.743500
     12 H11C        -1.7280    -1.5920     1.0000 hc         1 BV7       0.046200
     13 H12C        -1.4940    -2.2000    -0.6340 hc         1 BV7       0.046200
     14 H21C        -3.2670    -0.7480    -1.4960 h1         1 BV7       0.015950
     15 H22C        -3.8930    -1.7090    -0.1570 h1         1 BV7       0.015950
     16 H6          -0.8000     0.0160    -1.4110 hc         1 BV7       0.029700
     17 H3          -4.5290     0.5250     0.1420 hn         1 BV7       0.390000
     18 H41C        -2.7540     1.6770    -1.0490 h1         1 BV7       0.015950
     19 H42C        -3.0470     2.2830     0.5790 h1         1 BV7       0.015950
     20 H51C        -0.6320     1.9400     0.1200 hc         1 BV7       0.046200
     21 H52C        -1.1820     0.9460     1.4620 hc         1 BV7       0.046200
     22 H71C         0.6810    -0.7310     1.1440 hc         1 BV7       0.041200
     23 H72C         0.8630    -1.5550    -0.3850 hc         1 BV7       0.041200
     24 H81C         1.6270     0.5850    -1.4500 hc         1 BV7       0.014700
     25 H82C         1.5040     1.3990     0.0780 hc         1 BV7       0.014700
@<TRIPOS>BOND
     1     1     2 1   
     2     1     6 1   
     3     1    12 1   
     4     1    13 1   
     5     2     3 1   
     6     2    14 1   
     7     2    15 1   
     8     3     4 1   
     9     3    17 1   
    10     4     5 1   
    11     4    18 1   
    12     4    19 1   
    13     5     6 1   
    14     5    20 1   
    15     5    21 1   
    16     6     7 1   
    17     6    16 1   
    18     7     8 1   
    19     7    22 1   
    20     7    23 1   
    21     8     9 1   
    22     8    24 1   
    23     8    25 1   
    24     9    10 1   
    25     9    11 1   
@<TRIPOS>SUBSTRUCTURE
     1 BV7         1 TEMP              0 ****  ****    0 ROOT
