@<TRIPOS>MOLECULE
BV9
   35    37     1     0     0
SMALL
bcc


@<TRIPOS>ATOM
      1 CAA          3.2080     1.1310    -0.6350 ca         1 BV9      -0.089000
      2 CAB          4.1790     0.3210    -0.0500 ca         1 BV9      -0.150600
      3 CAC          3.8140    -0.9460     0.3980 ca         1 BV9      -0.089000
      4 CAD          2.5070    -1.3880     0.2740 ca         1 BV9      -0.128000
      5 CAE          1.5290    -0.5730    -0.2950 cp         1 BV9      -0.010000
      6 CAF          1.9000     0.6950    -0.7460 ca         1 BV9      -0.128000
      7 CAG          5.5800     0.8380     0.0310 c          1 BV9       0.683700
      8 CAJ          0.1390    -1.0420    -0.4230 cp         1 BV9      -0.153300
      9 CAK         -0.1460    -2.3610    -0.7720 ca         1 BV9       0.405200
     10 CAM         -2.3930    -2.0110    -0.6770 ca         1 BV9       0.402200
     11 CAN         -2.2430    -0.6700    -0.3180 ca         1 BV9      -0.093300
     12 CAO         -0.9400    -0.1940    -0.1950 ca         1 BV9      -0.082000
     13 CAP         -3.3970     0.1870    -0.0820 cc         1 BV9      -0.230300
     14 CAQ         -3.4690     1.5930    -0.1390 cc         1 BV9       0.322200
     15 CAT         -4.6850    -0.1890     0.2550 cd         1 BV9      -0.118300
     16 NAH          6.3680     0.2770     0.9600 nt         1 BV9      -0.670000
     17 NAL         -1.3780    -2.8320    -0.8940 nb         1 BV9      -0.662000
     18 NAR         -4.6830     2.0270     0.1330 nd         1 BV9      -0.521800
     19 NAS         -5.4040     0.9360     0.3730 na         1 BV9       0.115400
     20 OAI          5.9680     1.7210    -0.7220 o          1 BV9      -0.602100
     21 H1           3.4770     2.1110    -1.0050 ha         1 BV9       0.143000
     22 H2           4.5430    -1.6160     0.8350 ha         1 BV9       0.143000
     23 H3           2.2470    -2.3710     0.6440 ha         1 BV9       0.138000
     24 H4           1.1660     1.3420    -1.2100 ha         1 BV9       0.138000
     25 H5           0.6590    -3.0580    -0.9800 h4         1 BV9       0.022100
     26 H6          -3.3860    -2.4310    -0.8030 h4         1 BV9       0.016100
     27 H7          -0.7640     0.8300     0.1100 ha         1 BV9       0.141000
     28 H8          -2.6830     2.2940    -0.3810 h4         1 BV9       0.040100
     29 H9          -5.1210    -1.1600     0.4320 h4         1 BV9       0.174000
     30 H10         -6.9350     1.7120     1.5540 h1         1 BV9       0.058367
     31 H11         -7.3640     1.4410    -0.1460 h1         1 BV9       0.058367
     32 H12         -7.1900     0.0670     0.9550 h1         1 BV9       0.058367
     33 H13          6.0130    -0.3360     1.6730 hn         1 BV9       0.313500
     34 H14          7.3140     0.6030     1.0730 hn         1 BV9       0.313500
     35 CAU         -6.8050     1.0500     0.7010 c3         1 BV9       0.042600
@<TRIPOS>BOND
     1     1     2 ar  
     2     1     6 ar  
     3     1    21 1   
     4     2     3 ar  
     5     2     7 1   
     6     3     4 ar  
     7     3    22 1   
     8     4     5 ar  
     9     4    23 1   
    10     5     6 ar  
    11     5     8 1   
    12     6    24 1   
    13     7    16 1   
    14     7    20 2   
    15     8     9 ar  
    16     8    12 ar  
    17     9    17 ar  
    18     9    25 1   
    19    10    11 ar  
    20    10    17 ar  
    21    10    26 1   
    22    11    12 ar  
    23    11    13 1   
    24    12    27 1   
    25    13    14 1   
    26    13    15 2   
    27    14    18 2   
    28    14    28 1   
    29    15    19 1   
    30    15    29 1   
    31    16    33 1   
    32    16    34 1   
    33    18    19 1   
    34    19    35 1   
    35    30    35 1   
    36    31    35 1   
    37    32    35 1   
@<TRIPOS>SUBSTRUCTURE
     1 BV9         1 TEMP              0 ****  ****    0 ROOT
