@<TRIPOS>MOLECULE
BV9
   35    37     1     0     0
SMALL
No Charge or Current Charge


@<TRIPOS>ATOM
      1 CAA          3.2010     1.2000    -0.5930 ca         1 BV9      -0.071000
      2 CAB          4.2340     0.3930    -0.0690 ca         1 BV9      -0.150600
      3 CAC          3.9020    -0.8970     0.4080 ca         1 BV9      -0.071000
      4 CAD          2.5760    -1.3590     0.3570 ca         1 BV9      -0.110000
      5 CAE          1.5330    -0.5560    -0.1650 cp         1 BV9      -0.010000
      6 CAF          1.8760     0.7330    -0.6400 ca         1 BV9      -0.110000
      7 CAG          5.6520     0.9250    -0.0310 c          1 BV9       0.616700
      8 CAJ          0.1210    -1.0530    -0.2170 cp         1 BV9      -0.088000
      9 CAK         -0.1720    -2.4250    -0.4260 ca         1 BV9       0.339900
     10 CAM         -2.4590    -2.0680    -0.3300 ca         1 BV9       0.336900
     11 CAN         -2.2960    -0.6790    -0.1140 ca         1 BV9      -0.028000
     12 CAO         -0.9810    -0.1760    -0.0580 ca         1 BV9      -0.064000
     13 CAP         -3.4410     0.2260     0.0540 cc         1 BV9      -0.165000
     14 CAQ         -3.4800     1.6140     0.2740 cc         1 BV9       0.256900
     15 CAT         -4.7380    -0.1960     0.0130 cd         1 BV9      -0.151000
     16 NAH          6.6220     0.1320     0.4740 nt         1 BV9      -0.603000
     17 NAL         -1.4260    -2.9290    -0.4850 nb         1 BV9      -0.662000
     18 NAR         -4.7000     2.1000     0.3770 nd         1 BV9      -0.521800
     19 NAS         -5.4900     0.9680     0.2130 na         1 BV9       0.136800
     20 OAI          5.9510     2.0360    -0.4380 o          1 BV9      -0.602100
     21 H1           3.4210     2.1960    -0.9710 ha         1 BV9       0.125000
     22 H2           4.6610    -1.5550     0.8230 ha         1 BV9       0.125000
     23 H3           2.3550    -2.3510     0.7440 ha         1 BV9       0.120000
     24 H4           1.1110     1.3780    -1.0640 ha         1 BV9       0.120000
     25 H5           0.6310    -3.1470    -0.5670 h4         1 BV9       0.022100
     26 H6          -3.4480    -2.5180    -0.3830 h4         1 BV9       0.016100
     27 H7          -0.8100     0.8810     0.1210 ha         1 BV9       0.123000
     28 H8          -2.6430     2.2920     0.3650 h4         1 BV9       0.040100
     29 H9          -5.1880    -1.1720    -0.1320 h4         1 BV9       0.156000
     30 H10         -7.2670     1.4530     1.2340 h1         1 BV9       0.058367
     31 H11         -7.3040     1.7340    -0.5340 h1         1 BV9       0.058367
     32 H12         -7.3950     0.0680     0.1090 h1         1 BV9       0.058367
     33 H13          6.4010    -0.7900     0.8160 hn         1 BV9       0.313500
     34 H14          7.5700     0.4760     0.5040 hn         1 BV9       0.313500
     35 CAU         -6.9550     1.0610     0.2580 c3         1 BV9       0.071900
@<TRIPOS>BOND
     1     1     2 ar  
     2     1     6 ar  
     3     1    21 1   
     4     2     3 ar  
     5     2     7 1   
     6     3     4 ar  
     7     3    22 1   
     8     4     5 ar  
     9     4    23 1   
    10     5     6 ar  
    11     5     8 1   
    12     6    24 1   
    13     7    16 1   
    14     7    20 2   
    15     8     9 ar  
    16     8    12 ar  
    17     9    17 ar  
    18     9    25 1   
    19    10    11 ar  
    20    10    17 ar  
    21    10    26 1   
    22    11    12 ar  
    23    11    13 1   
    24    12    27 1   
    25    13    14 1   
    26    13    15 2   
    27    14    18 2   
    28    14    28 1   
    29    15    19 1   
    30    15    29 1   
    31    16    33 1   
    32    16    34 1   
    33    18    19 1   
    34    19    35 1   
    35    30    35 1   
    36    31    35 1   
    37    32    35 1   
@<TRIPOS>SUBSTRUCTURE
     1 BV9         1 TEMP              0 ****  ****    0 ROOT
