@<TRIPOS>MOLECULE
BVB
   28    29     1     0     0
SMALL
No Charge or Current Charge


@<TRIPOS>ATOM
      1 OAA          6.3050     2.1930     0.0150 oh         1 BVB      -0.532600
      2 OAB          5.7190    -2.5460     0.0250 oh         1 BVB      -0.532600
      3 CAD          0.7540    -0.5430    -0.0020 ce         1 BVB      -0.145200
      4 CAE          1.7670     0.3740    -0.0040 cf         1 BVB      -0.151200
      5 CAF         -2.9810    -1.2570     0.1060 ca         1 BVB      -0.085000
      6 CAG         -2.6790     1.1430    -0.1420 ca         1 BVB      -0.085000
      7 CAH         -1.5850    -1.4300     0.1110 ca         1 BVB      -0.099000
      8 CAI         -1.2830     0.9700    -0.1370 ca         1 BVB      -0.099000
      9 CAJ          6.0340    -0.1750     0.0210 ca         1 BVB      -0.242000
     10 CAK          4.0870     1.2800     0.0060 ca         1 BVB      -0.203500
     11 CAL          3.7980    -1.1280     0.0110 ca         1 BVB      -0.203500
     12 CAM          5.4800     1.1100     0.0140 ca         1 BVB       0.178100
     13 CAN          5.1900    -1.2930     0.0190 ca         1 BVB       0.178100
     14 CAO         -3.5260     0.0300    -0.0190 ca         1 BVB      -0.015900
     15 CAP         -0.7230    -0.3200    -0.0090 ca         1 BVB      -0.041800
     16 CAQ          3.2290     0.1630     0.0040 ca         1 BVB       0.022200
     17 HOAA         5.7500     3.0010     0.0100 ho         1 BVB       0.468000
     18 HOAB         6.6970    -2.4660     0.0300 ho         1 BVB       0.468000
     19 HAD          1.0260    -1.5970     0.0120 ha         1 BVB       0.179000
     20 HAE          1.4870     1.4270    -0.0100 ha         1 BVB       0.173000
     21 HAF         -3.6360    -2.1200     0.2010 ha         1 BVB       0.129500
     22 HAG         -3.1020     2.1400    -0.2420 ha         1 BVB       0.129500
     23 HAH         -1.1760    -2.4330     0.2100 ha         1 BVB       0.116500
     24 HAI         -0.6500     1.8460    -0.2380 ha         1 BVB       0.116500
     25 HAJ          7.1140    -0.2950     0.0270 ha         1 BVB       0.130000
     26 HAK          3.6670     2.2830     0.0010 ha         1 BVB       0.123000
     27 HAL          3.1710    -2.0130     0.0100 ha         1 BVB       0.123000
     28 Br          -5.4240     0.2680    -0.0260 br         1 BVB      -0.097100
@<TRIPOS>BOND
     1     1    12 1   
     2     1    17 1   
     3     2    13 1   
     4     2    18 1   
     5     3     4 2   
     6     3    15 1   
     7     3    19 1   
     8     4    16 1   
     9     4    20 1   
    10     5     7 ar  
    11     5    14 ar  
    12     5    21 1   
    13     6     8 ar  
    14     6    14 ar  
    15     6    22 1   
    16     7    15 ar  
    17     7    23 1   
    18     8    15 ar  
    19     8    24 1   
    20     9    12 ar  
    21     9    13 ar  
    22     9    25 1   
    23    10    12 ar  
    24    10    16 ar  
    25    10    26 1   
    26    11    13 ar  
    27    11    16 ar  
    28    11    27 1   
    29    14    28 1   
@<TRIPOS>SUBSTRUCTURE
     1 BVB         1 TEMP              0 ****  ****    0 ROOT
