@<TRIPOS>MOLECULE
BVB
   28    29     1     0     0
SMALL
abcg2


@<TRIPOS>ATOM
      1 OAA          6.2500     2.1570     0.0990 oh         1 BVB      -0.532600
      2 OAB          5.6070    -2.5260    -0.0450 oh         1 BVB      -0.532600
      3 CAD          0.7860    -0.5440     0.0300 ce         1 BVB      -0.145200
      4 CAE          1.7390     0.3940    -0.0450 cf         1 BVB      -0.151200
      5 CAF         -2.8940    -1.2490     0.1480 ca         1 BVB      -0.085000
      6 CAG         -2.6030     1.1240    -0.1820 ca         1 BVB      -0.085000
      7 CAH         -1.5160    -1.4010     0.1600 ca         1 BVB      -0.099000
      8 CAI         -1.2300     0.9540    -0.1670 ca         1 BVB      -0.099000
      9 CAJ          5.9580    -0.1600     0.0320 ca         1 BVB      -0.242000
     10 CAK          4.0200     1.2770     0.0240 ca         1 BVB      -0.203500
     11 CAL          3.7390    -1.1190    -0.0450 ca         1 BVB      -0.203500
     12 CAM          5.4000     1.1130     0.0530 ca         1 BVB       0.178100
     13 CAN          5.1200    -1.2710    -0.0180 ca         1 BVB       0.178100
     14 CAO         -3.4290     0.0180    -0.0230 ca         1 BVB      -0.015900
     15 CAP         -0.6560    -0.3110     0.0060 ca         1 BVB      -0.041800
     16 CAQ          3.1830     0.1600    -0.0210 ca         1 BVB       0.022200
     17 HOAA         5.7600     2.9870     0.1080 ho         1 BVB       0.468000
     18 HOAB         6.5710    -2.5170    -0.0280 ho         1 BVB       0.468000
     19 HAD          1.0720    -1.5860     0.1290 ha         1 BVB       0.179000
     20 HAE          1.4520     1.4370    -0.1240 ha         1 BVB       0.173000
     21 HAF         -3.5300    -2.1150     0.2730 ha         1 BVB       0.129500
     22 HAG         -3.0170     2.1140    -0.3190 ha         1 BVB       0.129500
     23 HAH         -1.1030    -2.3930     0.2960 ha         1 BVB       0.116500
     24 HAI         -0.6060     1.8290    -0.2960 ha         1 BVB       0.116500
     25 HAJ          7.0360    -0.2770     0.0510 ha         1 BVB       0.130000
     26 HAK          3.5890     2.2730     0.0400 ha         1 BVB       0.123000
     27 HAL          3.1140    -2.0020    -0.0920 ha         1 BVB       0.123000
     28 BR          -5.3020     0.2460    -0.0420 br         1 BVB      -0.097100
@<TRIPOS>BOND
     1     1    12 1   
     2     1    17 1   
     3     2    13 1   
     4     2    18 1   
     5     3     4 2   
     6     3    15 1   
     7     3    19 1   
     8     4    16 1   
     9     4    20 1   
    10     5     7 ar  
    11     5    14 ar  
    12     5    21 1   
    13     6     8 ar  
    14     6    14 ar  
    15     6    22 1   
    16     7    15 ar  
    17     7    23 1   
    18     8    15 ar  
    19     8    24 1   
    20     9    12 ar  
    21     9    13 ar  
    22     9    25 1   
    23    10    12 ar  
    24    10    16 ar  
    25    10    26 1   
    26    11    13 ar  
    27    11    16 ar  
    28    11    27 1   
    29    14    28 1   
@<TRIPOS>SUBSTRUCTURE
     1 BVB         1 TEMP              0 ****  ****    0 ROOT
