@<TRIPOS>MOLECULE
BVC
   14    14     1     0     0
SMALL
No Charge or Current Charge


@<TRIPOS>ATOM
      1 C1           1.4640     1.1470     0.0700 cc         1 BVC      -0.243000
      2 S2           1.9170    -0.5460     0.1800 ss         1 BVC       0.196000
      3 C3           0.2570    -1.0370    -0.1370 cc         1 BVC      -0.226000
      4 C4          -0.5760     0.0440    -0.3100 cd         1 BVC      -0.103300
      5 C5           0.1240     1.2800    -0.1910 cd         1 BVC      -0.129000
      6 C6          -2.0540    -0.0490    -0.6000 c3         1 BVC       0.214100
      7 N7          -2.8160    -0.1810     0.6540 n8         1 BVC      -0.986200
      8 H1           2.2170     1.9140     0.2050 h4         1 BVC       0.149000
      9 H3           0.0150    -2.0910    -0.1700 h4         1 BVC       0.150000
     10 H5          -0.3600     2.2460    -0.2970 ha         1 BVC       0.128000
     11 H61         -2.2560    -0.9200    -1.2390 h1         1 BVC       0.034200
     12 H62         -2.3860     0.8560    -1.1280 h1         1 BVC       0.034200
     13 HN71        -2.6470     0.6550     1.2240 hn         1 BVC       0.391000
     14 HN72        -3.8190    -0.1340     0.4380 hn         1 BVC       0.391000
@<TRIPOS>BOND
     1     1     2 1   
     2     1     5 2   
     3     1     8 1   
     4     2     3 1   
     5     3     4 2   
     6     3     9 1   
     7     4     5 1   
     8     4     6 1   
     9     5    10 1   
    10     6     7 1   
    11     6    11 1   
    12     6    12 1   
    13     7    13 1   
    14     7    14 1   
@<TRIPOS>SUBSTRUCTURE
     1 BVC         1 TEMP              0 ****  ****    0 ROOT
