@<TRIPOS>MOLECULE
BVC
   14    14     1     0     0
SMALL
bcc


@<TRIPOS>ATOM
      1 C1           1.4210     1.1170     0.1430 cc         1 BVC      -0.116100
      2 S2           1.9100    -0.5220     0.0320 ss         1 BVC      -0.093800
      3 C3           0.3070    -1.0350    -0.2960 cc         1 BVC      -0.099100
      4 C4          -0.5710     0.0070    -0.3230 cd         1 BVC      -0.103300
      5 C5           0.0840     1.2510    -0.0690 cd         1 BVC      -0.147000
      6 C6          -2.0460    -0.1230    -0.5560 c3         1 BVC       0.214100
      7 N7          -2.7870     0.0510     0.6900 n8         1 BVC      -0.875800
      8 H1           2.1430     1.8920     0.3500 h4         1 BVC       0.167000
      9 H3           0.0900    -2.0810    -0.4530 h4         1 BVC       0.168000
     10 H5          -0.4250     2.2060    -0.0510 ha         1 BVC       0.146000
     11 H61         -2.2600    -1.1210    -0.9430 h1         1 BVC       0.034200
     12 H62         -2.3420     0.5840    -1.3430 h1         1 BVC       0.034200
     13 HN71        -2.6690     1.0000     1.0220 hn         1 BVC       0.335800
     14 HN72        -3.7770    -0.0430     0.4950 hn         1 BVC       0.335800
@<TRIPOS>BOND
     1     1     2 1   
     2     1     5 2   
     3     1     8 1   
     4     2     3 1   
     5     3     4 2   
     6     3     9 1   
     7     4     5 1   
     8     4     6 1   
     9     5    10 1   
    10     6     7 1   
    11     6    11 1   
    12     6    12 1   
    13     7    13 1   
    14     7    14 1   
@<TRIPOS>SUBSTRUCTURE
     1 BVC         1 TEMP              0 ****  ****    0 ROOT
