@<TRIPOS>MOLECULE
BVD
   32    33     1     0     0
SMALL
bcc


@<TRIPOS>ATOM
      1 O5          -1.3600     2.2470     5.1850 oh         1 BVD      -0.587800
      2 C5          -0.3720     1.2440     5.1970 c3         1 BVD       0.139400
      3 C4          -0.8830     0.0290     4.4640 c5         1 BVD       0.147100
      4 O4          -1.0510     0.3260     3.0850 os         1 BVD      -0.387600
      5 C1          -0.7610    -0.7860     2.2920 c5         1 BVD       0.328500
      6 N1           0.0710    -0.3620     1.1590 n          1 BVD      -0.380000
      7 C6          -0.4390    -0.4270    -0.0970 cc         1 BVD       0.069600
      8 C2           1.3330     0.1550     1.3820 c          1 BVD       0.834500
      9 O2           1.8340     0.2390     2.4800 o          1 BVD      -0.630500
     10 N3           1.9830     0.5640     0.2490 ns         1 BVD      -0.602500
     11 C8           1.5450     0.5250    -1.0610 c          1 BVD       0.741700
     12 O1           2.2600     0.9330    -1.9560 o          1 BVD      -0.600500
     13 C7           0.2110    -0.0270    -1.2170 cd         1 BVD      -0.238200
     14 C5A         -0.4590    -0.1690    -2.5010 cf         1 BVD      -0.079000
     15 C5B          0.0120     0.1820    -3.6960 c2         1 BVD      -0.097300
     16 BR          -1.0110    -0.0870    -5.2600 br         1 BVD      -0.102700
     17 C9          -0.1620    -1.8620     3.2010 c5         1 BVD      -0.151400
     18 C3           0.0790    -1.1570     4.5360 c5         1 BVD       0.116100
     19 O3          -0.2300    -1.9250     5.6710 oh         1 BVD      -0.586800
     20 HO5         -1.0220     3.0060     5.6700 ho         1 BVD       0.407000
     21 H5'1         0.5590     1.5760     4.7210 h1         1 BVD       0.037200
     22 H5'2        -0.1220     0.9300     6.2190 h1         1 BVD       0.037200
     23 H4          -1.8490    -0.2800     4.8920 h1         1 BVD       0.077700
     24 H1          -1.6720    -1.1630     1.8220 h2         1 BVD       0.065700
     25 H6          -1.4370    -0.8390    -0.1650 h4         1 BVD       0.158000
     26 HN3          2.9090     0.9480     0.4020 hn         1 BVD       0.345500
     27 H5A         -1.4470    -0.6130    -2.4360 ha         1 BVD       0.128000
     28 H5B          0.9770     0.6310    -3.8790 h4         1 BVD       0.181000
     29 H2'1        -0.9100    -2.6440     3.3440 hc         1 BVD       0.073700
     30 H2'2         0.7270    -2.3320     2.7840 hc         1 BVD       0.073700
     31 H3           1.1100    -0.7940     4.5840 h1         1 BVD       0.071700
     32 HO3          0.4990    -2.5320     5.8320 ho         1 BVD       0.413000
@<TRIPOS>BOND
     1     1     2 1   
     2     1    20 1   
     3     2     3 1   
     4     2    21 1   
     5     2    22 1   
     6     3     4 1   
     7     3    18 1   
     8     3    23 1   
     9     4     5 1   
    10     5     6 1   
    11     5    17 1   
    12     5    24 1   
    13     6     7 1   
    14     6     8 1   
    15     7    13 2   
    16     7    25 1   
    17     8     9 2   
    18     8    10 1   
    19    10    11 1   
    20    10    26 1   
    21    11    12 2   
    22    11    13 1   
    23    13    14 1   
    24    14    15 2   
    25    14    27 1   
    26    15    16 1   
    27    15    28 1   
    28    17    18 1   
    29    17    29 1   
    30    17    30 1   
    31    18    19 1   
    32    18    31 1   
    33    19    32 1   
@<TRIPOS>SUBSTRUCTURE
     1 BVD         1 TEMP              0 ****  ****    0 ROOT
