@<TRIPOS>MOLECULE
BVD
   32    33     1     0     0
SMALL
No Charge or Current Charge


@<TRIPOS>ATOM
      1 O5          -1.3810     2.2000     5.8600 oh         1 BVD      -0.710000
      2 C5          -0.4110     1.1480     5.6790 c3         1 BVD       0.162600
      3 C4          -0.8410     0.1610     4.5580 c5         1 BVD       0.170300
      4 O4          -0.7160     0.7710     3.2570 os         1 BVD      -0.434000
      5 C1          -0.8180    -0.2940     2.2950 c5         1 BVD       0.351700
      6 N1           0.0640    -0.1160     1.1080 n          1 BVD      -0.313000
      7 C6          -0.4320    -0.4950    -0.1430 cc         1 BVD       0.019600
      8 C2           1.3510     0.4500     1.2400 c          1 BVD       0.625000
      9 O2           1.8750     0.7570     2.2970 o          1 BVD      -0.555000
     10 N3           2.0390     0.6170     0.0820 ns         1 BVD      -0.468500
     11 C8           1.6650     0.3030    -1.1860 c          1 BVD       0.599200
     12 O1           2.4180     0.5030    -2.1250 o          1 BVD      -0.525000
     13 C7           0.3060    -0.2980    -1.2910 cd         1 BVD      -0.238200
     14 C5A         -0.2250    -0.7070    -2.6010 cf         1 BVD      -0.129000
     15 C5B         -0.0870     0.0150    -3.7360 c2         1 BVD      -0.147300
     16 Br          -0.8610    -0.5310    -5.3900 br         1 BVD      -0.102700
     17 C9          -0.3900    -1.6110     3.0190 c5         1 BVD      -0.151400
     18 C3           0.0690    -1.0950     4.4110 c5         1 BVD       0.139300
     19 O3          -0.1390    -2.0740     5.4350 oh         1 BVD      -0.709000
     20 HO5         -1.0170     2.8150     6.5390 ho         1 BVD       0.506000
     21 H5'1         0.5720     1.5670     5.4230 h1         1 BVD       0.037200
     22 H5'2        -0.2950     0.5820     6.6130 h1         1 BVD       0.037200
     23 H4          -1.8870    -0.1330     4.7220 h1         1 BVD       0.077700
     24 H1          -1.8520    -0.3690     1.9350 h2         1 BVD       0.065700
     25 H6          -1.4260    -0.9330    -0.1080 h4         1 BVD       0.208000
     26 HN3          2.9580     1.0160     0.1780 hn         1 BVD       0.345500
     27 H5A         -0.8390    -1.6110    -2.6190 ha         1 BVD       0.178000
     28 H5B          0.4690     0.9530    -3.7770 h4         1 BVD       0.231000
     29 H2'1        -1.2480    -2.2880     3.0990 hc         1 BVD       0.073700
     30 H2'2         0.4040    -2.1590     2.4990 hc         1 BVD       0.073700
     31 H3           1.1240    -0.7840     4.3810 h1         1 BVD       0.071700
     32 HO3          0.4730    -2.8250     5.2480 ho         1 BVD       0.512000
@<TRIPOS>BOND
     1     1     2 1   
     2     1    20 1   
     3     2     3 1   
     4     2    21 1   
     5     2    22 1   
     6     3     4 1   
     7     3    18 1   
     8     3    23 1   
     9     4     5 1   
    10     5     6 1   
    11     5    17 1   
    12     5    24 1   
    13     6     7 1   
    14     6     8 1   
    15     7    13 2   
    16     7    25 1   
    17     8     9 2   
    18     8    10 1   
    19    10    11 1   
    20    10    26 1   
    21    11    12 2   
    22    11    13 1   
    23    13    14 1   
    24    14    15 2   
    25    14    27 1   
    26    15    16 1   
    27    15    28 1   
    28    17    18 1   
    29    17    29 1   
    30    17    30 1   
    31    18    19 1   
    32    18    31 1   
    33    19    32 1   
@<TRIPOS>SUBSTRUCTURE
     1 BVD         1 TEMP              0 ****  ****    0 ROOT
