@<TRIPOS>MOLECULE
BVE
   63    67     1     0     0
SMALL
bcc


@<TRIPOS>ATOM
      1 C12          1.1220    -3.3430    -0.6900 ca         1 BVE      -0.099000
      2 C13          1.0750     2.2540     0.1690 cp         1 BVE      -0.126000
      3 C18          0.7530     2.9210    -1.0100 ca         1 BVE      -0.099000
      4 C22          3.2810     1.1870    -0.1410 ca         1 BVE      -0.157000
      5 C17         -0.0420     4.0580    -0.9660 ca         1 BVE      -0.117250
      6 C16         -0.5070     4.5350     0.2520 ca         1 BVE      -0.086000
      7 C15         -0.1680     3.8810     1.4300 ca         1 BVE      -0.117250
      8 C14          0.6240     2.7440     1.3930 ca         1 BVE      -0.099000
      9 C21          4.1200     0.0760    -0.2050 cp         1 BVE       0.120000
     10 C28         -3.1300    -1.2260    -0.5680 ca         1 BVE      -0.143500
     11 C29         -4.4810    -1.0660    -0.2890 ca         1 BVE      -0.018000
     12 C24         -4.9670     0.2060    -0.0360 ca         1 BVE      -0.259500
     13 S1          -6.6860     0.4450     0.3080 sy         1 BVE       1.265200
     14 O2          -7.1550     1.6440    -0.3710 o          1 BVE      -0.599800
     15 O1          -7.3770    -0.8100     0.0460 o          1 BVE      -0.599800
     16 N2          -6.6320     0.8300     1.9130 n8         1 BVE      -0.896700
     17 C25         -4.1310     1.3180    -0.0630 ca         1 BVE      -0.018000
     18 C26         -2.7900     1.1400    -0.3440 ca         1 BVE      -0.143500
     19 C27         -2.2760    -0.1320    -0.6000 ca         1 BVE      -0.055300
     20 C30         -0.8070    -0.3040    -0.8570 c3         1 BVE      -0.047100
     21 N1           1.3990    -0.1820     0.2870 na         1 BVE       0.028900
     22 C23          1.9360     1.0510     0.1090 cp         1 BVE       0.088200
     23 C1           5.5580     0.2140    -0.4610 cp         1 BVE      -0.110000
     24 C6           6.2550    -0.7890    -1.1390 ca         1 BVE      -0.087000
     25 C5           7.6130    -0.6550    -1.3810 ca         1 BVE      -0.124000
     26 C4           8.2920     0.4720    -0.9390 ca         1 BVE      -0.075000
     27 C3           7.6080     1.4710    -0.2580 ca         1 BVE      -0.124000
     28 C2           6.2480     1.3470    -0.0260 ca         1 BVE      -0.087000
     29 C20          3.5290    -1.1700    -0.0100 ca         1 BVE      -0.157000
     30 C19          2.1790    -1.2880     0.2250 cp         1 BVE       0.088200
     31 C7           1.5750    -2.6270     0.4140 cp         1 BVE      -0.126000
     32 C11          0.5790    -4.6080    -0.5140 ca         1 BVE      -0.117250
     33 C10          0.4980    -5.1600     0.7570 ca         1 BVE      -0.086000
     34 C9           0.9650    -4.4490     1.8550 ca         1 BVE      -0.117250
     35 C8           1.5070    -3.1840     1.6880 ca         1 BVE      -0.099000
     36 H1           1.1980    -2.9180    -1.6830 ha         1 BVE       0.142750
     37 H2           1.1140     2.5480    -1.9600 ha         1 BVE       0.142750
     38 H3           3.6630     2.1860    -0.2980 ha         1 BVE       0.189000
     39 H4          -0.2960     4.5680    -1.8850 ha         1 BVE       0.156250
     40 H5          -1.1290     5.4190     0.2850 ha         1 BVE       0.156500
     41 H6          -0.5170     4.2580     2.3820 ha         1 BVE       0.156250
     42 H7           0.8910     2.2400     2.3130 ha         1 BVE       0.142750
     43 H8          -2.7470    -2.2190    -0.7690 ha         1 BVE       0.136000
     44 H9          -5.1340    -1.9270    -0.2720 ha         1 BVE       0.165000
     45 H10         -7.4890     1.2830     2.2160 hn         1 BVE       0.422800
     46 H11         -6.4340     0.0270     2.5030 hn         1 BVE       0.422800
     47 H12         -4.5160     2.3100     0.1310 ha         1 BVE       0.165000
     48 H13         -2.1340     2.0030    -0.3700 ha         1 BVE       0.136000
     49 H14         -0.6200    -1.2340    -1.3950 hc         1 BVE       0.067700
     50 H15         -0.4420     0.5060    -1.4890 hc         1 BVE       0.067700
     51 H16         -0.3950     0.4870     1.1210 h1         1 BVE       0.097200
     52 H17         -0.2480    -1.2430     1.0100 h1         1 BVE       0.097200
     53 H18          5.7360    -1.6650    -1.5060 ha         1 BVE       0.136000
     54 H19          8.1390    -1.4330    -1.9190 ha         1 BVE       0.153000
     55 H20          9.3540     0.5730    -1.1250 ha         1 BVE       0.154000
     56 H21          8.1340     2.3470     0.0970 ha         1 BVE       0.153000
     57 H22          5.7330     2.1260     0.5210 ha         1 BVE       0.136000
     58 H23          4.1180    -2.0750    -0.0190 ha         1 BVE       0.189000
     59 H24          0.2250    -5.1620    -1.3730 ha         1 BVE       0.156250
     60 H25          0.0740    -6.1460     0.8930 ha         1 BVE       0.156500
     61 H26          0.9070    -4.8800     2.8460 ha         1 BVE       0.156250
     62 H27          1.8720    -2.6310     2.5440 ha         1 BVE       0.142750
     63 C31         -0.0590    -0.3180     0.4750 c3         1 BVE       0.002300
@<TRIPOS>BOND
     1     1    31 ar  
     2     1    32 ar  
     3     1    36 1   
     4     2     3 ar  
     5     2     8 ar  
     6     2    22 1   
     7     3     5 ar  
     8     3    37 1   
     9     4     9 ar  
    10     4    22 ar  
    11     4    38 1   
    12     5     6 ar  
    13     5    39 1   
    14     6     7 ar  
    15     6    40 1   
    16     7     8 ar  
    17     7    41 1   
    18     8    42 1   
    19     9    23 1   
    20     9    29 ar  
    21    10    11 ar  
    22    10    19 ar  
    23    10    43 1   
    24    11    12 ar  
    25    11    44 1   
    26    12    13 1   
    27    12    17 ar  
    28    13    14 2   
    29    13    15 2   
    30    13    16 1   
    31    16    45 1   
    32    16    46 1   
    33    17    18 ar  
    34    17    47 1   
    35    18    19 ar  
    36    18    48 1   
    37    19    20 1   
    38    20    49 1   
    39    20    50 1   
    40    20    63 1   
    41    21    22 1   
    42    21    30 2   
    43    21    63 1   
    44    23    24 ar  
    45    23    28 ar  
    46    24    25 ar  
    47    24    53 1   
    48    25    26 ar  
    49    25    54 1   
    50    26    27 ar  
    51    26    55 1   
    52    27    28 ar  
    53    27    56 1   
    54    28    57 1   
    55    29    30 ar  
    56    29    58 1   
    57    30    31 1   
    58    31    35 ar  
    59    32    33 ar  
    60    32    59 1   
    61    33    34 ar  
    62    33    60 1   
    63    34    35 ar  
    64    34    61 1   
    65    35    62 1   
    66    51    63 1   
    67    52    63 1   
@<TRIPOS>SUBSTRUCTURE
     1 BVE         1 TEMP              0 ****  ****    0 ROOT
