@<TRIPOS>MOLECULE
BVE
   63    67     1     0     0
SMALL
No Charge or Current Charge


@<TRIPOS>ATOM
      1 C12          1.6300    -3.7000     0.0480 ca         1 BVE      -0.081000
      2 C13          1.3070     2.5120     0.7060 cp         1 BVE      -0.126000
      3 C18          1.2180     3.5100    -0.2950 ca         1 BVE      -0.081000
      4 C22          3.2860     1.2230    -0.1260 ca         1 BVE      -0.139000
      5 C17          0.5770     4.7340    -0.0400 ca         1 BVE      -0.099250
      6 C16          0.0200     4.9860     1.2240 ca         1 BVE      -0.068000
      7 C15          0.1080     4.0140     2.2350 ca         1 BVE      -0.099250
      8 C14          0.7490     2.7900     1.9790 ca         1 BVE      -0.081000
      9 C21          4.0100     0.0410    -0.3900 cp         1 BVE       0.120000
     10 C28         -3.0030    -1.1170    -0.9160 ca         1 BVE      -0.125500
     11 C29         -4.4080    -1.1020    -0.8700 ca         1 BVE       0.000000
     12 C24         -5.0930     0.1030    -0.6070 ca         1 BVE      -0.259500
     13 S1          -6.8860     0.1350    -0.5450 sy         1 BVE       1.123600
     14 O2          -7.3860     1.4730    -0.8620 o          1 BVE      -0.529000
     15 O1          -7.4300    -1.0810    -1.1470 o          1 BVE      -0.529000
     16 N2          -7.1720    -0.0590     1.0550 n8         1 BVE      -1.007100
     17 C25         -4.3600     1.2890    -0.3910 ca         1 BVE       0.000000
     18 C26         -2.9560     1.2660    -0.4390 ca         1 BVE      -0.125500
     19 C27         -2.2710     0.0660    -0.7040 ca         1 BVE      -0.055300
     20 C30         -0.7510     0.0490    -0.7450 c3         1 BVE      -0.047100
     21 N1           1.3330    -0.0500     0.6720 na         1 BVE       0.050300
     22 C23          1.9860     1.2090     0.4270 cp         1 BVE       0.037500
     23 C1           5.3890     0.0810    -0.9720 cp         1 BVE      -0.110000
     24 C6           5.8250    -0.9140    -1.8840 ca         1 BVE      -0.069000
     25 C5           7.1190    -0.8790    -2.4330 ca         1 BVE      -0.106000
     26 C4           8.0050     0.1520    -2.0810 ca         1 BVE      -0.057000
     27 C3           7.5960     1.1470    -1.1790 ca         1 BVE      -0.106000
     28 C2           6.3020     1.1130    -0.6310 ca         1 BVE      -0.069000
     29 C20          3.4000    -1.1830    -0.0420 ca         1 BVE      -0.139000
     30 C19          2.1020    -1.2560     0.5130 cp         1 BVE       0.088200
     31 C7           1.5730    -2.5920     0.9290 cp         1 BVE      -0.126000
     32 C11          1.1400    -4.9590     0.4370 ca         1 BVE      -0.099250
     33 C10          0.5900    -5.1340     1.7180 ca         1 BVE      -0.068000
     34 C9           0.5340    -4.0510     2.6100 ca         1 BVE      -0.099250
     35 C8           1.0240    -2.7920     2.2200 ca         1 BVE      -0.081000
     36 H1           2.0470    -3.5790    -0.9500 ha         1 BVE       0.124750
     37 H2           1.6390     3.3260    -1.2820 ha         1 BVE       0.124750
     38 H3           3.7430     2.1820    -0.3520 ha         1 BVE       0.171000
     39 H4           0.5120     5.4870    -0.8230 ha         1 BVE       0.138250
     40 H5          -0.4770     5.9340     1.4220 ha         1 BVE       0.138500
     41 H6          -0.3170     4.2100     3.2170 ha         1 BVE       0.138250
     42 H7           0.8190     2.0500     2.7740 ha         1 BVE       0.124750
     43 H8          -2.4850    -2.0520    -1.1170 ha         1 BVE       0.118000
     44 H9          -4.9560    -2.0290    -1.0400 ha         1 BVE       0.147000
     45 H10         -7.8570    -0.8110     1.0410 hn         1 BVE       0.478000
     46 H11         -6.3210    -0.5120     1.3770 hn         1 BVE       0.478000
     47 H12         -4.8730     2.2270    -0.1830 ha         1 BVE       0.147000
     48 H13         -2.3990     2.1850    -0.2680 ha         1 BVE       0.118000
     49 H14         -0.3920    -0.7660    -1.3860 hc         1 BVE       0.067700
     50 H15         -0.3830     0.9780    -1.1980 hc         1 BVE       0.067700
     51 H16         -0.5490     0.6700     1.3190 h1         1 BVE       0.097200
     52 H17         -0.4910    -1.0650     1.0810 h1         1 BVE       0.097200
     53 H18          5.1510    -1.7140    -2.1810 ha         1 BVE       0.118000
     54 H19          7.4330    -1.6490    -3.1340 ha         1 BVE       0.135000
     55 H20          9.0070     0.1790    -2.5060 ha         1 BVE       0.136000
     56 H21          8.2820     1.9440    -0.9020 ha         1 BVE       0.135000
     57 H22          6.0130     1.8860     0.0770 ha         1 BVE       0.118000
     58 H23          3.9640    -2.1030    -0.1660 ha         1 BVE       0.171000
     59 H24          1.1860    -5.7980    -0.2540 ha         1 BVE       0.138250
     60 H25          0.2110    -6.1090     2.0190 ha         1 BVE       0.138500
     61 H26          0.1140    -4.1870     3.6050 ha         1 BVE       0.138250
     62 H27          0.9840    -1.9650     2.9260 ha         1 BVE       0.124750
     63 C31         -0.1490    -0.1120     0.6660 c3         1 BVE       0.031600
@<TRIPOS>BOND
     1     1    31 ar  
     2     1    32 ar  
     3     1    36 1   
     4     2     3 ar  
     5     2     8 ar  
     6     2    22 1   
     7     3     5 ar  
     8     3    37 1   
     9     4     9 ar  
    10     4    22 ar  
    11     4    38 1   
    12     5     6 ar  
    13     5    39 1   
    14     6     7 ar  
    15     6    40 1   
    16     7     8 ar  
    17     7    41 1   
    18     8    42 1   
    19     9    23 1   
    20     9    29 ar  
    21    10    11 ar  
    22    10    19 ar  
    23    10    43 1   
    24    11    12 ar  
    25    11    44 1   
    26    12    13 1   
    27    12    17 ar  
    28    13    14 2   
    29    13    15 2   
    30    13    16 1   
    31    16    45 1   
    32    16    46 1   
    33    17    18 ar  
    34    17    47 1   
    35    18    19 ar  
    36    18    48 1   
    37    19    20 1   
    38    20    49 1   
    39    20    50 1   
    40    20    63 1   
    41    21    22 1   
    42    21    30 2   
    43    21    63 1   
    44    23    24 ar  
    45    23    28 ar  
    46    24    25 ar  
    47    24    53 1   
    48    25    26 ar  
    49    25    54 1   
    50    26    27 ar  
    51    26    55 1   
    52    27    28 ar  
    53    27    56 1   
    54    28    57 1   
    55    29    30 ar  
    56    29    58 1   
    57    30    31 1   
    58    31    35 ar  
    59    32    33 ar  
    60    32    59 1   
    61    33    34 ar  
    62    33    60 1   
    63    34    35 ar  
    64    34    61 1   
    65    35    62 1   
    66    51    63 1   
    67    52    63 1   
@<TRIPOS>SUBSTRUCTURE
     1 BVE         1 TEMP              0 ****  ****    0 ROOT
