@<TRIPOS>MOLECULE
BVF
   16    16     1     0     0
SMALL
abcg2


@<TRIPOS>ATOM
      1 C1          -0.1040     1.7030     0.0770 ca         1 BVF       0.382900
      2 C2           1.1480     1.1270     0.0840 ca         1 BVF      -0.222000
      3 C3           1.2360    -0.2690    -0.0010 ca         1 BVF       0.000700
      4 C4           0.0590    -0.9850    -0.0910 ca         1 BVF      -0.231000
      5 C5          -1.1710    -0.3030    -0.0940 ca         1 BVF       0.595900
      6 N6          -1.2460     1.0230    -0.0080 nb         1 BVF      -0.745000
      7 N7          -2.3440    -0.9860    -0.2350 nv         1 BVF      -1.056900
      8 C8           2.5670    -0.9550     0.0140 c3         1 BVF      -0.053800
      9 H1          -0.2030     2.7820     0.1450 h4         1 BVF       0.014100
     10 H2           2.0340     1.7430     0.1570 ha         1 BVF       0.122000
     11 H4           0.0770    -2.0670    -0.1570 ha         1 BVF       0.117000
     12 HN71        -3.1810    -0.4980     0.0400 hn         1 BVF       0.469000
     13 HN72        -2.3440    -1.9660    -0.0110 hn         1 BVF       0.469000
     14 H81          3.0870    -0.7690     0.9540 hc         1 BVF       0.046367
     15 H82          2.4670    -2.0320    -0.1100 hc         1 BVF       0.046367
     16 H83          3.2070    -0.5770    -0.7840 hc         1 BVF       0.046367
@<TRIPOS>BOND
     1     1     2 ar  
     2     1     6 ar  
     3     1     9 1   
     4     2     3 ar  
     5     2    10 1   
     6     3     4 ar  
     7     3     8 1   
     8     4     5 ar  
     9     4    11 1   
    10     5     6 ar  
    11     5     7 1   
    12     7    12 1   
    13     7    13 1   
    14     8    14 1   
    15     8    15 1   
    16     8    16 1   
@<TRIPOS>SUBSTRUCTURE
     1 BVF         1 TEMP              0 ****  ****    0 ROOT
