@<TRIPOS>MOLECULE
BVF
   16    16     1     0     0
SMALL
No Charge or Current Charge


@<TRIPOS>ATOM
      1 C1          -0.1540     1.7000     0.0050 ca         1 BVF       0.382900
      2 C2           1.1260     1.1180     0.0330 ca         1 BVF      -0.222000
      3 C3           1.2480    -0.2810    -0.0100 ca         1 BVF       0.000700
      4 C4           0.0630    -1.0290    -0.0770 ca         1 BVF      -0.231000
      5 C5          -1.1550    -0.3450    -0.1020 ca         1 BVF       0.595900
      6 N6          -1.2930     0.9730    -0.0610 nb         1 BVF      -0.745000
      7 N7          -2.3420    -0.9530    -0.1570 nv         1 BVF      -1.056900
      8 C8           2.6090    -0.9560     0.0210 c3         1 BVF      -0.053800
      9 H1          -0.2710     2.7830     0.0380 h4         1 BVF       0.014100
     10 H2           2.0050     1.7540     0.0880 ha         1 BVF       0.122000
     11 H4           0.0870    -2.1140    -0.1100 ha         1 BVF       0.117000
     12 HN71        -3.1330    -0.3630     0.0720 hn         1 BVF       0.469000
     13 HN72        -2.3910    -1.9190     0.1490 hn         1 BVF       0.469000
     14 H81          2.9220    -1.1550     1.0530 hc         1 BVF       0.046367
     15 H82          2.5930    -1.9130    -0.5150 hc         1 BVF       0.046367
     16 H83          3.3770    -0.3290    -0.4470 hc         1 BVF       0.046367
@<TRIPOS>BOND
     1     1     2 ar  
     2     1     6 ar  
     3     1     9 1   
     4     2     3 ar  
     5     2    10 1   
     6     3     4 ar  
     7     3     8 1   
     8     4     5 ar  
     9     4    11 1   
    10     5     6 ar  
    11     5     7 1   
    12     7    12 1   
    13     7    13 1   
    14     8    14 1   
    15     8    15 1   
    16     8    16 1   
@<TRIPOS>SUBSTRUCTURE
     1 BVF         1 TEMP              0 ****  ****    0 ROOT
