@<TRIPOS>MOLECULE
BVG
   13    13     1     0     0
SMALL
No Charge or Current Charge


@<TRIPOS>ATOM
      1 O7           2.5090     0.4510    -0.0280 oh         1 BVG      -0.667000
      2 C6           1.6260    -0.6960     0.0050 c3         1 BVG       0.132300
      3 C4           0.1490    -0.3220     0.0080 cc         1 BVG       0.391800
      4 N5          -0.8640    -1.1780     0.0360 nd         1 BVG      -0.672000
      5 N3          -0.3220     0.9690    -0.0170 na         1 BVG      -0.282500
      6 C2          -1.7010     0.9220    -0.0050 cc         1 BVG      -0.230000
      7 C1          -2.0140    -0.4120     0.0270 cd         1 BVG       0.230900
      8 HO7          3.4310     0.1060    -0.0280 ho         1 BVG       0.451000
      9 H61          1.8120    -1.3390    -0.8650 h1         1 BVG       0.046200
     10 H62          1.8260    -1.2980     0.9010 h1         1 BVG       0.046200
     11 HN3          0.2710     1.7910    -0.0400 hn         1 BVG       0.358000
     12 H2          -2.3360     1.8010    -0.0200 h4         1 BVG       0.157000
     13 H1          -2.9990    -0.8630     0.0450 h4         1 BVG       0.038100
@<TRIPOS>BOND
     1     1     2 1   
     2     1     8 1   
     3     2     3 1   
     4     2     9 1   
     5     2    10 1   
     6     3     4 2   
     7     3     5 1   
     8     4     7 1   
     9     5     6 1   
    10     5    11 1   
    11     6     7 2   
    12     6    12 1   
    13     7    13 1   
@<TRIPOS>SUBSTRUCTURE
     1 BVG         1 TEMP              0 ****  ****    0 ROOT
