@<TRIPOS>MOLECULE
BVG
   13    13     1     0     0
SMALL
abcg2


@<TRIPOS>ATOM
      1 O7           2.3650     0.3260     0.5270 oh         1 BVG      -0.667000
      2 C6           1.6030    -0.7020    -0.0640 c3         1 BVG       0.132300
      3 C4           0.1630    -0.3350     0.0270 cc         1 BVG       0.391800
      4 N5          -0.8260    -1.1480     0.3070 nd         1 BVG      -0.672000
      5 N3          -0.2900     0.9110    -0.2250 na         1 BVG      -0.282500
      6 C2          -1.6480     0.8980    -0.0970 cc         1 BVG      -0.230000
      7 C1          -1.9620    -0.3900     0.2270 cd         1 BVG       0.230900
      8 HO7          3.2840     0.1970     0.2790 ho         1 BVG       0.451000
      9 H61          1.8760    -0.8420    -1.1170 h1         1 BVG       0.046200
     10 H62          1.7380    -1.6710     0.4300 h1         1 BVG       0.046200
     11 HN3          0.2760     1.7140    -0.4520 hn         1 BVG       0.358000
     12 H2          -2.2510     1.7790    -0.2380 h4         1 BVG       0.157000
     13 H1          -2.9400    -0.8070     0.4140 h4         1 BVG       0.038100
@<TRIPOS>BOND
     1     1     2 1   
     2     1     8 1   
     3     2     3 1   
     4     2     9 1   
     5     2    10 1   
     6     3     4 2   
     7     3     5 1   
     8     4     7 1   
     9     5     6 1   
    10     5    11 1   
    11     6     7 2   
    12     6    12 1   
    13     7    13 1   
@<TRIPOS>SUBSTRUCTURE
     1 BVG         1 TEMP              0 ****  ****    0 ROOT
