@<TRIPOS>MOLECULE
BVH
   24    24     1     0     0
SMALL
No Charge or Current Charge


@<TRIPOS>ATOM
      1 C1           1.8710    -0.2110     0.1160 c6         1 BVH       0.137300
      2 C2           1.0090    -0.9040     1.2090 c6         1 BVH      -0.105400
      3 C3          -0.4110    -1.2640     0.6920 c6         1 BVH      -0.062400
      4 C4          -1.1450    -0.0200     0.1250 c6         1 BVH      -0.027500
      5 C5          -0.2880     0.6720    -0.9740 c6         1 BVH      -0.058400
      6 C6           1.1350     1.0460    -0.4690 c6         1 BVH       0.177300
      7 C7          -2.5130    -0.4050    -0.4210 c2         1 BVH      -0.213200
      8 C8          -3.6690     0.0960     0.0430 c2         1 BVH      -0.318000
      9 O1           2.1830    -1.1560    -0.9200 oh         1 BVH      -0.659000
     10 O2           1.0410     2.0980     0.5090 oh         1 BVH      -0.658000
     11 H1           2.8090     0.1250     0.5820 h1         1 BVH       0.022700
     12 H2           1.5140    -1.8090     1.5730 hc         1 BVH       0.045700
     13 H3           0.9190    -0.2390     2.0790 hc         1 BVH       0.045700
     14 H4          -0.3380    -2.0400    -0.0830 hc         1 BVH       0.043200
     15 H5          -1.0000    -1.7010     1.5100 hc         1 BVH       0.043200
     16 H6          -1.2860     0.6950     0.9490 hc         1 BVH       0.062700
     17 H7          -0.2000     0.0070    -1.8440 hc         1 BVH       0.055700
     18 H8          -0.8010     1.5740    -1.3330 hc         1 BVH       0.055700
     19 H9           1.7150     1.4100    -1.3310 h1         1 BVH       0.044700
     20 H10         -2.5170    -1.1330    -1.2370 ha         1 BVH       0.164000
     21 H11         -4.6300    -0.2070    -0.3760 ha         1 BVH       0.161500
     22 H12         -3.6990     0.8240     0.8560 ha         1 BVH       0.161500
     23 H13          2.6560    -1.9020    -0.4890 ho         1 BVH       0.444000
     24 H14          1.9600     2.3810     0.7090 ho         1 BVH       0.438000
@<TRIPOS>BOND
     1     1     2 1   
     2     1     6 1   
     3     1     9 1   
     4     1    11 1   
     5     2     3 1   
     6     2    12 1   
     7     2    13 1   
     8     3     4 1   
     9     3    14 1   
    10     3    15 1   
    11     4     5 1   
    12     4     7 1   
    13     4    16 1   
    14     5     6 1   
    15     5    17 1   
    16     5    18 1   
    17     6    10 1   
    18     6    19 1   
    19     7     8 2   
    20     7    20 1   
    21     8    21 1   
    22     8    22 1   
    23     9    23 1   
    24    10    24 1   
@<TRIPOS>SUBSTRUCTURE
     1 BVH         1 TEMP              0 ****  ****    0 ROOT
