@<TRIPOS>MOLECULE
BVH
   24    24     1     0     0
SMALL
bcc


@<TRIPOS>ATOM
      1 C1           1.8460    -0.2120     0.1220 c6         1 BVH       0.114100
      2 C2           1.0000    -0.8700     1.2060 c6         1 BVH      -0.105400
      3 C3          -0.3970    -1.2310     0.7120 c6         1 BVH      -0.062400
      4 C4          -1.1240    -0.0070     0.1460 c6         1 BVH      -0.027500
      5 C5          -0.2710     0.6530    -0.9450 c6         1 BVH      -0.058400
      6 C6           1.1310     1.0060    -0.4720 c6         1 BVH       0.154100
      7 C7          -2.4620    -0.3880    -0.4050 c2         1 BVH      -0.163200
      8 C8          -3.6310     0.0750     0.0230 c2         1 BVH      -0.218000
      9 O1           2.1120    -1.0880    -0.9550 oh         1 BVH      -0.596800
     10 O2           1.0160     2.0300     0.4960 oh         1 BVH      -0.595800
     11 H1           2.7920     0.1300     0.5720 h1         1 BVH       0.022700
     12 H2           1.5150    -1.7600     1.5820 hc         1 BVH       0.045700
     13 H3           0.9250    -0.1830     2.0540 hc         1 BVH       0.045700
     14 H4          -0.3330    -2.0040    -0.0600 hc         1 BVH       0.043200
     15 H5          -0.9810    -1.6600     1.5310 hc         1 BVH       0.043200
     16 H6          -1.2740     0.7130     0.9580 hc         1 BVH       0.062700
     17 H7          -0.1910    -0.0230    -1.8020 hc         1 BVH       0.055700
     18 H8          -0.7650     1.5570    -1.3130 hc         1 BVH       0.055700
     19 H9           1.7150     1.3590    -1.3340 h1         1 BVH       0.044700
     20 H10         -2.4450    -1.1020    -1.2260 ha         1 BVH       0.114000
     21 H11         -4.5660    -0.2390    -0.4240 ha         1 BVH       0.111500
     22 H12         -3.6980     0.7880     0.8370 ha         1 BVH       0.111500
     23 H13          2.4980    -1.8940    -0.6000 ho         1 BVH       0.405000
     24 H14          1.9010     2.2870     0.7730 ho         1 BVH       0.399000
@<TRIPOS>BOND
     1     1     2 1   
     2     1     6 1   
     3     1     9 1   
     4     1    11 1   
     5     2     3 1   
     6     2    12 1   
     7     2    13 1   
     8     3     4 1   
     9     3    14 1   
    10     3    15 1   
    11     4     5 1   
    12     4     7 1   
    13     4    16 1   
    14     5     6 1   
    15     5    17 1   
    16     5    18 1   
    17     6    10 1   
    18     6    19 1   
    19     7     8 2   
    20     7    20 1   
    21     8    21 1   
    22     8    22 1   
    23     9    23 1   
    24    10    24 1   
@<TRIPOS>SUBSTRUCTURE
     1 BVH         1 TEMP              0 ****  ****    0 ROOT
