@<TRIPOS>MOLECULE
BVI
   49    53     1     0     0
SMALL
No Charge or Current Charge


@<TRIPOS>ATOM
      1 C2           3.6670    -2.9000    19.9990 ca         1 BVI       0.385900
      2 C4           5.1400    -3.8620    18.4990 ca         1 BVI       0.087000
      3 C5           6.0650    -2.8350    18.8050 ca         1 BVI      -0.197000
      4 C6           5.6840    -1.8580    19.7440 ca         1 BVI       0.171900
      5 C7           7.3280    -2.7910    18.1900 ca         1 BVI      -0.059000
      6 N1           4.4790    -1.8880    20.3440 nb         1 BVI      -0.231000
      7 C8           7.6820    -3.7810    17.2630 ca         1 BVI      -0.131000
      8 C9           6.7760    -4.8080    16.9490 ca         1 BVI      -0.076000
      9 C10          5.5030    -4.8530    17.5540 ca         1 BVI      -0.042300
     10 C11          4.5560    -5.9730    17.2000 cx         1 BVI      -0.066400
     11 C12          4.3380    -6.4190    15.7700 cx         1 BVI      -0.126900
     12 C13          3.2340    -5.7080    16.5140 cx         1 BVI      -0.126900
     13 C15          1.3030    -3.7190    20.5610 cc         1 BVI       0.179000
     14 C16          0.0530    -3.4610    21.0360 cd         1 BVI      -0.172300
     15 C19          1.2370    -5.0100    19.9760 cc         1 BVI       0.258900
     16 C20         -2.1400    -4.8040    21.0240 c6         1 BVI       0.106300
     17 N3           3.9360    -3.8760    19.1130 nb         1 BVI      -0.237000
     18 C21         -2.3770    -6.0660    21.8970 c6         1 BVI      -0.125900
     19 C25         -2.9960    -4.8720    19.7310 c6         1 BVI      -0.125900
     20 C22         -3.8890    -6.2700    22.1430 c6         1 BVI       0.155100
     21 C24         -4.4770    -5.1360    20.0820 c6         1 BVI       0.155100
     22 C26         -0.4820    -2.2400    21.7490 c3         1 BVI      -0.024800
     23 N18          0.0480    -5.5770    20.0480 nd         1 BVI      -0.519800
     24 N17         -0.6960    -4.6080    20.7130 na         1 BVI       0.134800
     25 N14          2.4250    -2.8950    20.6240 nu         1 BVI      -0.906900
     26 O23         -4.5850    -6.3360    20.8790 os         1 BVI      -0.443000
     27 H1           6.3490    -1.0410    20.0220 h4         1 BVI       0.021100
     28 H2           8.0330    -1.9970    18.4310 ha         1 BVI       0.114000
     29 H3           8.6600    -3.7560    16.7880 ha         1 BVI       0.117000
     30 H4           7.0660    -5.5730    16.2330 ha         1 BVI       0.116000
     31 H5           4.5600    -6.7560    17.9550 hc         1 BVI       0.097700
     32 H6           4.2230    -7.4840    15.5850 hc         1 BVI       0.070950
     33 H7           4.8410    -5.8700    14.9770 hc         1 BVI       0.070950
     34 H8           3.0070    -4.6850    16.2260 hc         1 BVI       0.070950
     35 H9           2.3750    -6.2940    16.8310 hc         1 BVI       0.070950
     36 H10          2.0330    -5.5640    19.5010 h4         1 BVI       0.055100
     37 H11         -2.4880    -3.9380    21.6030 h1         1 BVI       0.055700
     38 H12         -1.9690    -6.9580    21.4030 hc         1 BVI       0.069200
     39 H13         -1.8520    -5.9660    22.8570 hc         1 BVI       0.069200
     40 H14         -2.6310    -5.6720    19.0720 hc         1 BVI       0.069200
     41 H15         -2.9070    -3.9330    19.1680 hc         1 BVI       0.069200
     42 H16         -4.2970    -5.4410    22.7400 h1         1 BVI       0.046200
     43 H17         -4.0590    -7.2050    22.6940 h1         1 BVI       0.046200
     44 H18         -4.8970    -4.2880    20.6430 h1         1 BVI       0.046200
     45 H19         -5.0660    -5.2630    19.1620 h1         1 BVI       0.046200
     46 H20         -1.3300    -1.8060    21.2050 hc         1 BVI       0.048700
     47 H21         -0.8250    -2.4940    22.7600 hc         1 BVI       0.048700
     48 H22          0.2800    -1.4580    21.8450 hc         1 BVI       0.048700
     49 H23          2.2860    -2.0690    21.2060 hn         1 BVI       0.514000
@<TRIPOS>BOND
     1     1     6 ar  
     2     1    17 ar  
     3     1    25 1   
     4     2     3 ar  
     5     2     9 ar  
     6     2    17 ar  
     7     3     4 ar  
     8     3     5 ar  
     9     4     6 ar  
    10     4    27 1   
    11     5     7 ar  
    12     5    28 1   
    13     7     8 ar  
    14     7    29 1   
    15     8     9 ar  
    16     8    30 1   
    17     9    10 1   
    18    10    11 1   
    19    10    12 1   
    20    10    31 1   
    21    11    12 1   
    22    11    32 1   
    23    11    33 1   
    24    12    34 1   
    25    12    35 1   
    26    13    14 2   
    27    13    15 1   
    28    13    25 1   
    29    14    22 1   
    30    14    24 1   
    31    15    23 2   
    32    15    36 1   
    33    16    18 1   
    34    16    19 1   
    35    16    24 1   
    36    16    37 1   
    37    18    20 1   
    38    18    38 1   
    39    18    39 1   
    40    19    21 1   
    41    19    40 1   
    42    19    41 1   
    43    20    26 1   
    44    20    42 1   
    45    20    43 1   
    46    21    26 1   
    47    21    44 1   
    48    21    45 1   
    49    22    46 1   
    50    22    47 1   
    51    22    48 1   
    52    23    24 1   
    53    25    49 1   
@<TRIPOS>SUBSTRUCTURE
     1 BVI         1 TEMP              0 ****  ****    0 ROOT
