@<TRIPOS>MOLECULE
BVI
   49    53     1     0     0
SMALL
abcg2


@<TRIPOS>ATOM
      1 C2           3.3710    -2.4720    19.5730 ca         1 BVI       0.385900
      2 C4           4.9560    -3.7340    18.5400 ca         1 BVI       0.087000
      3 C5           5.8970    -2.6950    18.7000 ca         1 BVI      -0.197000
      4 C6           5.4160    -1.5330    19.3470 ca         1 BVI       0.171900
      5 C7           7.2180    -2.8330    18.2350 ca         1 BVI      -0.059000
      6 N1           4.1970    -1.4070    19.7760 nb         1 BVI      -0.231000
      7 C8           7.5910    -4.0010    17.6280 ca         1 BVI      -0.131000
      8 C9           6.6550    -5.0440    17.4700 ca         1 BVI      -0.076000
      9 C10          5.3530    -4.9410    17.8990 ca         1 BVI      -0.042300
     10 C11          4.3530    -6.0260    17.7310 cx         1 BVI      -0.066400
     11 C12          4.5000    -7.0900    16.6890 cx         1 BVI      -0.126900
     12 C13          3.4450    -6.0380    16.5330 cx         1 BVI      -0.126900
     13 C15          1.0570    -3.1870    19.9400 cc         1 BVI       0.179000
     14 C16          0.0610    -3.3650    20.8840 cd         1 BVI      -0.172300
     15 C19          0.7240    -4.0610    18.8890 cc         1 BVI       0.258900
     16 C20         -2.0120    -4.7900    20.9300 c6         1 BVI       0.106300
     17 N3           3.6900    -3.5990    18.9870 nb         1 BVI      -0.237000
     18 C21         -1.9880    -6.3070    21.0910 c6         1 BVI      -0.125900
     19 C25         -3.2250    -4.3720    20.1040 c6         1 BVI      -0.125900
     20 C22         -3.3290    -6.7820    21.6300 c6         1 BVI       0.155100
     21 C24         -4.4860    -4.9750    20.7060 c6         1 BVI       0.155100
     22 C26         -0.1330    -2.7180    22.2080 c3         1 BVI      -0.024800
     23 N18         -0.3830    -4.7190    19.1650 nd         1 BVI      -0.519800
     24 N17         -0.7760    -4.2880    20.3590 na         1 BVI       0.134800
     25 N14          2.1130    -2.2840    20.0370 nu         1 BVI      -0.906900
     26 O23         -4.4010    -6.3790    20.8080 os         1 BVI      -0.443000
     27 H1           6.0880    -0.6920    19.5030 h4         1 BVI       0.021100
     28 H2           7.9200    -2.0190    18.3680 ha         1 BVI       0.114000
     29 H3           8.6020    -4.1360    17.2680 ha         1 BVI       0.117000
     30 H4           6.9840    -5.9600    16.9950 ha         1 BVI       0.116000
     31 H5           3.8780    -6.3370    18.6560 hc         1 BVI       0.097700
     32 H6           4.1910    -8.0930    16.9510 hc         1 BVI       0.070950
     33 H7           5.3490    -7.0530    16.0190 hc         1 BVI       0.070950
     34 H8           3.6040    -5.2770    15.7790 hc         1 BVI       0.070950
     35 H9           2.4080    -6.3100    16.6830 hc         1 BVI       0.070950
     36 H10          1.2530    -4.2360    17.9660 h4         1 BVI       0.055100
     37 H11         -2.1020    -4.3430    21.9230 h1         1 BVI       0.055700
     38 H12         -1.7860    -6.7800    20.1270 hc         1 BVI       0.069200
     39 H13         -1.1930    -6.6040    21.7790 hc         1 BVI       0.069200
     40 H14         -3.1050    -4.7110    19.0730 hc         1 BVI       0.069200
     41 H15         -3.3180    -3.2830    20.0870 hc         1 BVI       0.069200
     42 H16         -3.4690    -6.4030    22.6540 h1         1 BVI       0.046200
     43 H17         -3.3540    -7.8710    21.6800 h1         1 BVI       0.046200
     44 H18         -4.6680    -4.5300    21.6960 h1         1 BVI       0.046200
     45 H19         -5.3520    -4.7500    20.0820 h1         1 BVI       0.046200
     46 H20         -1.0190    -2.0810    22.2270 hc         1 BVI       0.048700
     47 H21         -0.2390    -3.4540    23.0070 hc         1 BVI       0.048700
     48 H22          0.7260    -2.0960    22.4530 hc         1 BVI       0.048700
     49 H23          1.9430    -1.3950    20.4800 hn         1 BVI       0.514000
@<TRIPOS>BOND
     1     1     6 ar  
     2     1    17 ar  
     3     1    25 1   
     4     2     3 ar  
     5     2     9 ar  
     6     2    17 ar  
     7     3     4 ar  
     8     3     5 ar  
     9     4     6 ar  
    10     4    27 1   
    11     5     7 ar  
    12     5    28 1   
    13     7     8 ar  
    14     7    29 1   
    15     8     9 ar  
    16     8    30 1   
    17     9    10 1   
    18    10    11 1   
    19    10    12 1   
    20    10    31 1   
    21    11    12 1   
    22    11    32 1   
    23    11    33 1   
    24    12    34 1   
    25    12    35 1   
    26    13    14 2   
    27    13    15 1   
    28    13    25 1   
    29    14    22 1   
    30    14    24 1   
    31    15    23 2   
    32    15    36 1   
    33    16    18 1   
    34    16    19 1   
    35    16    24 1   
    36    16    37 1   
    37    18    20 1   
    38    18    38 1   
    39    18    39 1   
    40    19    21 1   
    41    19    40 1   
    42    19    41 1   
    43    20    26 1   
    44    20    42 1   
    45    20    43 1   
    46    21    26 1   
    47    21    44 1   
    48    21    45 1   
    49    22    46 1   
    50    22    47 1   
    51    22    48 1   
    52    23    24 1   
    53    25    49 1   
@<TRIPOS>SUBSTRUCTURE
     1 BVI         1 TEMP              0 ****  ****    0 ROOT
