@<TRIPOS>MOLECULE
BVJ
   64    68     1     0     0
SMALL
abcg2


@<TRIPOS>ATOM
      1 C13         -3.2510     0.7870     0.3620 ce         1 BVJ      -0.102200
      2 C18         -1.7350    -3.0930     0.0430 c6         1 BVJ       0.119000
      3 C15         -1.3780    -0.7270     0.7220 c          1 BVJ       0.603300
      4 C20          0.4510    -2.2090     0.9480 c6         1 BVJ       0.088000
      5 C21          0.8740    -3.6560     0.8890 ca         1 BVJ      -0.100300
      6 C22          0.2690    -4.5290    -0.0100 ca         1 BVJ      -0.053300
      7 C23         -0.8880    -4.0200    -0.8110 c6         1 BVJ      -0.054100
      8 C24          1.9200    -4.0980     1.6930 ca         1 BVJ      -0.094000
      9 C34          4.5100     0.2550     0.9340 ca         1 BVJ      -0.120500
     10 C27          0.7240    -5.8400    -0.0950 ca         1 BVJ      -0.105000
     11 C33          5.6360     0.9310     0.4960 ca         1 BVJ      -0.124000
     12 CL1         -7.8360     0.0170    -1.9190 cl         1 BVJ      -0.146000
     13 C2          -6.4150     2.8420     0.5000 ca         1 BVJ      -0.114000
     14 C3          -7.2640     2.1210    -0.3210 ca         1 BVJ      -0.065000
     15 C4          -6.8180     0.9420    -0.8920 ca         1 BVJ       0.072000
     16 C5          -5.5290     0.4970    -0.6430 ca         1 BVJ       0.196000
     17 C6          -4.6420     1.2010     0.1630 ca         1 BVJ      -0.065800
     18 C7          -5.1300     2.3860     0.7250 ca         1 BVJ       0.032800
     19 N8          -4.2850     3.1460     1.5670 na         1 BVJ      -0.005500
     20 C9          -3.9450     4.4370     1.4900 cc         1 BVJ       0.394400
     21 N10         -3.1820     4.7140     2.5120 nd         1 BVJ      -0.375000
     22 N11         -3.0680     3.5770     3.2060 nd         1 BVJ      -0.033000
     23 N12         -3.7210     2.6340     2.6600 nc         1 BVJ      -0.181800
     24 C14         -2.8270    -0.4670     0.5190 cf         1 BVJ      -0.240200
     25 O16         -0.6080     0.1740     1.0360 o          1 BVJ      -0.599100
     26 N19         -0.9360    -1.9970     0.5780 n          1 BVJ      -0.391800
     27 C25          2.3760    -5.4030     1.5950 ca         1 BVJ      -0.108000
     28 C26          1.7780    -6.2760     0.6950 ca         1 BVJ      -0.097000
     29 C28          1.3730    -1.4310    -0.0060 c          1 BVJ       0.613100
     30 O29          1.1560    -1.3890    -1.2010 o          1 BVJ      -0.581100
     31 C30          3.7310     0.0040    -1.3130 ca         1 BVJ      -0.120500
     32 C31          4.8570     0.6780    -1.7520 ca         1 BVJ      -0.124000
     33 C32          5.8270     1.1510    -0.8680 ca         1 BVJ      -0.033000
     34 C35          3.5430    -0.2200     0.0500 ca         1 BVJ      -0.038000
     35 N36          2.4500    -0.8960     0.6070 ns         1 BVJ      -0.129000
     36 C38          8.0150     2.3110    -0.7920 c          1 BVJ       0.644100
     37 O39          8.8390     2.8580    -1.6840 os         1 BVJ      -0.459100
     38 O40          8.2320     2.2700     0.3990 o          1 BVJ      -0.527000
     39 C41         10.0440     3.4290    -1.1820 c3         1 BVJ       0.171900
     40 H45         -2.5180     1.5860     0.3790 ha         1 BVJ       0.214000
     41 H48         -2.5320    -2.6880    -0.5750 h1         1 BVJ       0.050700
     42 H47         -2.1960    -3.6620     0.8560 h1         1 BVJ       0.050700
     43 H49          0.6000    -1.8480     1.9710 h1         1 BVJ       0.075700
     44 H50         -1.5100    -4.8470    -1.1570 hc         1 BVJ       0.071700
     45 H51         -0.5430    -3.4850    -1.6990 hc         1 BVJ       0.071700
     46 H52          2.3800    -3.4220     2.4040 ha         1 BVJ       0.111000
     47 H59          4.3880     0.0940     1.9990 ha         1 BVJ       0.130000
     48 H55          0.2450    -6.5250    -0.7840 ha         1 BVJ       0.115000
     49 H58          6.3490     1.2760     1.2260 ha         1 BVJ       0.130500
     50 H42         -6.7630     3.7510     0.9720 ha         1 BVJ       0.140000
     51 H43         -8.2720     2.4660    -0.5040 ha         1 BVJ       0.144000
     52 H44         -4.2530     5.1040     0.7020 h5         1 BVJ       0.079100
     53 H46         -3.5230    -1.2920     0.5590 ha         1 BVJ       0.192000
     54 H53          3.1900    -5.7390     2.2230 ha         1 BVJ       0.118000
     55 H54          2.1230    -7.2990     0.6180 ha         1 BVJ       0.116000
     56 H56          3.0140    -0.3380    -2.0410 ha         1 BVJ       0.130000
     57 H57          4.9800     0.8380    -2.8170 ha         1 BVJ       0.130500
     58 H60          2.4550    -0.9400     1.6140 hn         1 BVJ       0.152000
     59 H61          6.9000     1.9270    -2.4280 hn         1 BVJ       0.165000
     60 H62         10.5700     3.8190    -2.0480 h1         1 BVJ       0.050033
     61 H64          9.8430     4.2450    -0.4880 h1         1 BVJ       0.050033
     62 H63         10.6680     2.6830    -0.6900 h1         1 BVJ       0.050033
     63 F17         -5.1290    -0.6220    -1.2370 f          1 BVJ      -0.149000
     64 N37          6.9200     1.8200    -1.4250 ns         1 BVJ      -0.136000
@<TRIPOS>BOND
     1     1    17 1   
     2     1    24 2   
     3     1    40 1   
     4     2     7 1   
     5     2    26 1   
     6     2    41 1   
     7     2    42 1   
     8     3    24 1   
     9     3    25 2   
    10     3    26 1   
    11     4     5 1   
    12     4    26 1   
    13     4    29 1   
    14     4    43 1   
    15     5     6 ar  
    16     5     8 ar  
    17     6     7 1   
    18     6    10 ar  
    19     7    44 1   
    20     7    45 1   
    21     8    27 ar  
    22     8    46 1   
    23     9    11 ar  
    24     9    34 ar  
    25     9    47 1   
    26    10    28 ar  
    27    10    48 1   
    28    11    33 ar  
    29    11    49 1   
    30    12    15 1   
    31    13    14 ar  
    32    13    18 ar  
    33    13    50 1   
    34    14    15 ar  
    35    14    51 1   
    36    15    16 ar  
    37    16    17 ar  
    38    16    63 1   
    39    17    18 ar  
    40    18    19 1   
    41    19    20 1   
    42    19    23 1   
    43    20    21 2   
    44    20    52 1   
    45    21    22 1   
    46    22    23 2   
    47    24    53 1   
    48    27    28 ar  
    49    27    54 1   
    50    28    55 1   
    51    29    30 2   
    52    29    35 1   
    53    31    32 ar  
    54    31    34 ar  
    55    31    56 1   
    56    32    33 ar  
    57    32    57 1   
    58    33    64 1   
    59    34    35 1   
    60    35    58 1   
    61    36    37 1   
    62    36    38 2   
    63    36    64 1   
    64    37    39 1   
    65    39    60 1   
    66    39    61 1   
    67    39    62 1   
    68    59    64 1   
@<TRIPOS>SUBSTRUCTURE
     1 BVJ         1 TEMP              0 ****  ****    0 ROOT
