@<TRIPOS>MOLECULE
BVJ
   64    68     1     0     0
SMALL
No Charge or Current Charge


@<TRIPOS>ATOM
      1 C13         -3.9450     1.0240     0.5010 ce         1 BVJ      -0.102200
      2 C18         -1.3830    -2.3290    -0.4680 c6         1 BVJ       0.119000
      3 C15         -1.6650    -0.0520     0.6510 c          1 BVJ       0.603300
      4 C20          0.5660    -1.2500     0.8000 c6         1 BVJ       0.088000
      5 C21          0.9860    -2.6860     1.1520 ca         1 BVJ      -0.100300
      6 C22          0.5640    -3.7370     0.3240 ca         1 BVJ      -0.053300
      7 C23         -0.3300    -3.3960    -0.8570 c6         1 BVJ      -0.054100
      8 C24          1.7900    -2.9610     2.2760 ca         1 BVJ      -0.094000
      9 C34          5.2990    -0.3210     0.4920 ca         1 BVJ      -0.120500
     10 C27          0.9570    -5.0600     0.5990 ca         1 BVJ      -0.105000
     11 C33          6.5410     0.1350     0.0180 ca         1 BVJ      -0.124000
     12 Cl1         -7.8190     0.3440    -3.0360 cl         1 BVJ      -0.146000
     13 C2          -7.6740     1.8460     0.7190 ca         1 BVJ      -0.114000
     14 C3          -8.1300     1.4200    -0.5390 ca         1 BVJ      -0.065000
     15 C4          -7.2290     0.8630    -1.4570 ca         1 BVJ       0.072000
     16 C5          -5.8690     0.7310    -1.1180 ca         1 BVJ       0.196000
     17 C6          -5.3950     1.1510     0.1490 ca         1 BVJ      -0.065800
     18 C7          -6.3140     1.7170     1.0710 ca         1 BVJ       0.032800
     19 N8          -5.9050     2.1410     2.3370 na         1 BVJ      -0.005500
     20 C9          -6.0510     3.4070     2.8250 cc         1 BVJ       0.394400
     21 N10         -5.6560     3.3460     4.0840 nd         1 BVJ      -0.375000
     22 N11         -5.3060     2.0280     4.3280 nd         1 BVJ      -0.033000
     23 N12         -5.4800     1.2700     3.2750 nc         1 BVJ      -0.181800
     24 C14         -3.1020    -0.0190     0.2400 cf         1 BVJ      -0.240200
     25 O16         -1.1830     0.8910     1.2660 o          1 BVJ      -0.599100
     26 N19         -0.8640    -1.1710     0.3280 n          1 BVJ      -0.391800
     27 C25          2.1790    -4.2830     2.5550 ca         1 BVJ      -0.108000
     28 C26          1.7660    -5.3310     1.7150 ca         1 BVJ      -0.097000
     29 C28          1.5990    -0.6200    -0.1820 c          1 BVJ       0.613100
     30 O29          1.2790    -0.2260    -1.3010 o          1 BVJ      -0.581100
     31 C30          4.1970     0.6410    -1.4420 ca         1 BVJ      -0.120500
     32 C31          5.4400     1.0980    -1.9150 ca         1 BVJ      -0.124000
     33 C32          6.6230     0.8510    -1.1950 ca         1 BVJ      -0.033000
     34 C35          4.1170    -0.0790    -0.2320 ca         1 BVJ      -0.038000
     35 N36          2.8980    -0.5710     0.3140 ns         1 BVJ      -0.129000
     36 C38          9.1520     1.2710    -1.2920 c          1 BVJ       0.644100
     37 O39          9.9590     1.9150    -2.1900 os         1 BVJ      -0.459100
     38 O40          9.5470     0.7250    -0.2700 o          1 BVJ      -0.527000
     39 C41         11.3730     1.9570    -1.9170 c3         1 BVJ       0.171900
     40 H45         -3.5450     1.8770     1.0550 ha         1 BVJ       0.214000
     41 H48         -1.8520    -1.9560    -1.3890 h1         1 BVJ       0.050700
     42 H47         -2.1660    -2.8220     0.1250 h1         1 BVJ       0.050700
     43 H49          0.6600    -0.6610     1.7220 h1         1 BVJ       0.075700
     44 H50         -0.8370    -4.2920    -1.2390 hc         1 BVJ       0.071700
     45 H51          0.2900    -3.0160    -1.6810 hc         1 BVJ       0.071700
     46 H52          2.1150    -2.1570     2.9330 ha         1 BVJ       0.111000
     47 H59          5.2580    -0.8720     1.4300 ha         1 BVJ       0.130000
     48 H55          0.6330    -5.8750    -0.0450 ha         1 BVJ       0.115000
     49 H58          7.4260    -0.0770     0.6100 ha         1 BVJ       0.130500
     50 H42         -8.3840     2.2710     1.4260 ha         1 BVJ       0.140000
     51 H43         -9.1810     1.5210    -0.8010 ha         1 BVJ       0.144000
     52 H44         -6.4160     4.2560     2.2620 h5         1 BVJ       0.079100
     53 H46         -3.5020    -0.8820    -0.2830 ha         1 BVJ       0.192000
     54 H53          2.8020    -4.4940     3.4220 ha         1 BVJ       0.118000
     55 H54          2.0690    -6.3540     1.9320 ha         1 BVJ       0.116000
     56 H56          3.3120     0.8640    -2.0300 ha         1 BVJ       0.130000
     57 H57          5.4810     1.6510    -2.8520 ha         1 BVJ       0.130500
     58 H60          2.9990    -0.9670     1.2390 hn         1 BVJ       0.152000
     59 H61          7.7390     1.8410    -2.6080 hn         1 BVJ       0.165000
     60 H62         11.8990     2.5000    -2.7120 h1         1 BVJ       0.050033
     61 H64         11.5740     2.4670    -0.9660 h1         1 BVJ       0.050033
     62 H63         11.7920     0.9440    -1.8640 h1         1 BVJ       0.050033
     63 F17         -5.0100     0.2210    -2.0320 f          1 BVJ      -0.149000
     64 N37          7.8430     1.3430    -1.7340 ns         1 BVJ      -0.136000
@<TRIPOS>BOND
     1     1    17 1   
     2     1    24 2   
     3     1    40 1   
     4     2     7 1   
     5     2    26 1   
     6     2    41 1   
     7     2    42 1   
     8     3    24 1   
     9     3    25 2   
    10     3    26 1   
    11     4     5 1   
    12     4    26 1   
    13     4    29 1   
    14     4    43 1   
    15     5     6 ar  
    16     5     8 ar  
    17     6     7 1   
    18     6    10 ar  
    19     7    44 1   
    20     7    45 1   
    21     8    27 ar  
    22     8    46 1   
    23     9    11 ar  
    24     9    34 ar  
    25     9    47 1   
    26    10    28 ar  
    27    10    48 1   
    28    11    33 ar  
    29    11    49 1   
    30    12    15 1   
    31    13    14 ar  
    32    13    18 ar  
    33    13    50 1   
    34    14    15 ar  
    35    14    51 1   
    36    15    16 ar  
    37    16    17 ar  
    38    16    63 1   
    39    17    18 ar  
    40    18    19 1   
    41    19    20 1   
    42    19    23 1   
    43    20    21 2   
    44    20    52 1   
    45    21    22 1   
    46    22    23 2   
    47    24    53 1   
    48    27    28 ar  
    49    27    54 1   
    50    28    55 1   
    51    29    30 2   
    52    29    35 1   
    53    31    32 ar  
    54    31    34 ar  
    55    31    56 1   
    56    32    33 ar  
    57    32    57 1   
    58    33    64 1   
    59    34    35 1   
    60    35    58 1   
    61    36    37 1   
    62    36    38 2   
    63    36    64 1   
    64    37    39 1   
    65    39    60 1   
    66    39    61 1   
    67    39    62 1   
    68    59    64 1   
@<TRIPOS>SUBSTRUCTURE
     1 BVJ         1 TEMP              0 ****  ****    0 ROOT
