@<TRIPOS>MOLECULE
BVK
   22    22     1     0     0
SMALL
No Charge or Current Charge


@<TRIPOS>ATOM
      1 N1           4.4400     0.0630     0.4120 n8         1 BVK      -0.995200
      2 C2           0.0160     1.1440     0.5210 ca         1 BVK      -0.118500
      3 C3           1.3570     1.2360     0.1100 ca         1 BVK      -0.100000
      4 C4           2.0660     0.0810    -0.2710 ca         1 BVK      -0.136300
      5 C5           1.4150    -1.1680    -0.2380 ca         1 BVK      -0.100000
      6 C6           0.0730    -1.2590     0.1740 ca         1 BVK      -0.118500
      7 C           -3.0150    -0.0530    -0.2090 c          1 BVK       0.725000
      8 O           -3.2910    -1.0560    -0.8510 o          1 BVK      -0.727500
      9 C1          -0.6360    -0.1040     0.5560 ca         1 BVK       0.018700
     10 C7           3.5150     0.1810    -0.7260 c3         1 BVK       0.205100
     11 H1           4.3050    -0.8590     0.8420 hn         1 BVK       0.381000
     12 H2           5.4010     0.0320     0.0540 hn         1 BVK       0.381000
     13 H4          -0.5190     2.0450     0.8120 ha         1 BVK       0.106000
     14 H5           1.8460     2.2070     0.0880 ha         1 BVK       0.092500
     15 H6           1.9480    -2.0700    -0.5320 ha         1 BVK       0.092500
     16 H7          -0.4160    -2.2300     0.1930 ha         1 BVK       0.106000
     17 H8          -2.2640     0.6120     1.7180 hc         1 BVK       0.031200
     18 H9          -2.2200    -1.1950     1.4590 hc         1 BVK       0.031200
     19 H11          3.6880     1.1450    -1.2230 h1         1 BVK       0.022200
     20 H12          3.7370    -0.6210    -1.4440 h1         1 BVK       0.022200
     21 O1          -3.3430     1.0750    -0.5460 o          1 BVK      -0.727500
     22 CA          -2.0900    -0.2040     1.0070 c3         1 BVK      -0.192100
@<TRIPOS>BOND
     1     1    10 1   
     2     1    11 1   
     3     1    12 1   
     4     2     3 ar  
     5     2     9 ar  
     6     2    13 1   
     7     3     4 ar  
     8     3    14 1   
     9     4     5 ar  
    10     4    10 1   
    11     5     6 ar  
    12     5    15 1   
    13     6     9 ar  
    14     6    16 1   
    15     7     8 1   
    16     7    21 1   
    17     7    22 1   
    18     9    22 1   
    19    10    19 1   
    20    10    20 1   
    21    17    22 1   
    22    18    22 1   
@<TRIPOS>SUBSTRUCTURE
     1 BVK         1 TEMP              0 ****  ****    0 ROOT
