@<TRIPOS>MOLECULE
BVK
   22    22     1     0     0
SMALL
abcg2


@<TRIPOS>ATOM
      1 N1           4.4030     0.4370     0.2820 n8         1 BVK      -0.995200
      2 C2           0.1650     1.0890     0.5280 ca         1 BVK      -0.118500
      3 C3           1.4940     1.0610     0.1330 ca         1 BVK      -0.100000
      4 C4           2.0910    -0.1280    -0.2830 ca         1 BVK      -0.136300
      5 C5           1.3150    -1.2830    -0.2770 ca         1 BVK      -0.100000
      6 C6          -0.0160    -1.2500     0.1180 ca         1 BVK      -0.118500
      7 C           -3.0700     0.0850    -0.2140 c          1 BVK       0.725000
      8 O           -2.6370     0.0120    -1.3760 o          1 BVK      -0.727500
      9 C1          -0.6180    -0.0650     0.5280 ca         1 BVK       0.018700
     10 C7           3.5320    -0.1590    -0.7210 c3         1 BVK       0.205100
     11 H1           4.4230    -0.1540     1.1030 hn         1 BVK       0.381000
     12 H2           5.3520     0.4560    -0.0700 hn         1 BVK       0.381000
     13 H4          -0.2730     2.0290     0.8470 ha         1 BVK       0.106000
     14 H5           2.0790     1.9730     0.1510 ha         1 BVK       0.092500
     15 H6           1.7570    -2.2250    -0.5810 ha         1 BVK       0.092500
     16 H7          -0.5920    -2.1690     0.1200 ha         1 BVK       0.106000
     17 H8          -2.2240     0.7970     1.6420 hc         1 BVK       0.031200
     18 H9          -2.2960    -0.9390     1.5100 hc         1 BVK       0.031200
     19 H11          3.6390     0.4260    -1.6390 h1         1 BVK       0.022200
     20 H12          3.7980    -1.1910    -0.9840 h1         1 BVK       0.022200
     21 O1          -4.2580     0.2320     0.1390 o          1 BVK      -0.727500
     22 CA          -2.0520    -0.0310     0.9490 c3         1 BVK      -0.192100
@<TRIPOS>BOND
     1     1    10 1   
     2     1    11 1   
     3     1    12 1   
     4     2     3 ar  
     5     2     9 ar  
     6     2    13 1   
     7     3     4 ar  
     8     3    14 1   
     9     4     5 ar  
    10     4    10 1   
    11     5     6 ar  
    12     5    15 1   
    13     6     9 ar  
    14     6    16 1   
    15     7     8 1   
    16     7    21 1   
    17     7    22 1   
    18     9    22 1   
    19    10    19 1   
    20    10    20 1   
    21    17    22 1   
    22    18    22 1   
@<TRIPOS>SUBSTRUCTURE
     1 BVK         1 TEMP              0 ****  ****    0 ROOT
