@<TRIPOS>MOLECULE
BVL
   47    48     1     0     0
SMALL
abcg2


@<TRIPOS>ATOM
      1 C2           5.0920     1.5030    -0.1460 ca         1 BVL      -0.040500
      2 C4           6.3340    -0.5290     0.1400 ca         1 BVL       0.160100
      3 C5           5.1330    -1.2430     0.1850 ca         1 BVL      -0.185500
      4 C6           3.9290    -0.5800     0.0670 ca         1 BVL      -0.040500
      5 O24          0.3930     3.1290    -0.7080 o          1 BVL      -0.603100
      6 C9           0.2320     1.9510    -0.3490 c          1 BVL       0.614900
      7 C8           1.3890     1.0730    -0.1700 ce         1 BVL      -0.314200
      8 C1           3.8770     0.8090    -0.1020 ca         1 BVL      -0.124800
      9 C3           6.3050     0.8550    -0.0260 ca         1 BVL      -0.185500
     10 O25          7.5310    -1.1230     0.2480 oh         1 BVL      -0.527100
     11 C10         -1.1170     1.4400    -0.1150 ca         1 BVL      -0.329600
     12 C11         -2.2270     2.2730    -0.3790 ca         1 BVL       0.263100
     13 O23         -2.0880     3.5150    -0.8300 oh         1 BVL      -0.552100
     14 C12         -3.5230     1.8030    -0.1720 ca         1 BVL      -0.284000
     15 C13         -3.7330     0.5220     0.3150 ca         1 BVL       0.223100
     16 O21         -4.9460     0.0120     0.5410 os         1 BVL      -0.335100
     17 C22         -6.0920     0.8040     0.2870 c3         1 BVL       0.145900
     18 C14         -2.6450    -0.3300     0.6100 ca         1 BVL      -0.170300
     19 C15         -1.3800     0.1510     0.3820 ca         1 BVL       0.015000
     20 C16         -2.8640    -1.7280     1.1350 c3         1 BVL       0.027100
     21 C17         -3.2670    -2.6820     0.0470 c2         1 BVL      -0.211200
     22 C18         -2.5620    -3.7090    -0.4350 c2         1 BVL      -0.120400
     23 C20         -3.1150    -4.5710    -1.5340 c3         1 BVL      -0.054400
     24 C19         -1.1960    -4.1140     0.0320 c3         1 BVL      -0.054400
     25 H2           5.0830     2.5790    -0.2760 ha         1 BVL       0.117000
     26 H5           5.1440    -2.3190     0.3110 ha         1 BVL       0.124500
     27 H6           3.0180    -1.1640     0.1050 ha         1 BVL       0.117000
     28 H8           1.2200     0.0220     0.0180 ha         1 BVL       0.184000
     29 H7           2.7670     2.6200    -0.4160 ha         1 BVL       0.193000
     30 H3           7.2310     1.4140    -0.0650 ha         1 BVL       0.124500
     31 HO25         7.4320    -2.0780     0.3370 ho         1 BVL       0.469000
     32 HO23        -1.1110     3.6830    -0.8860 ho         1 BVL       0.523000
     33 H12         -4.3470     2.4700    -0.3920 ha         1 BVL       0.136000
     34 H22         -6.9510     0.1930     0.5520 h1         1 BVL       0.046033
     35 H22A        -6.0990     1.7110     0.8960 h1         1 BVL       0.046033
     36 H22B        -6.1650     1.0820    -0.7670 h1         1 BVL       0.046033
     37 H15         -0.5540    -0.5080     0.6160 ha         1 BVL       0.112000
     38 H16         -1.9480    -2.0560     1.6270 hc         1 BVL       0.051200
     39 H16A        -3.6340    -1.7180     1.9110 hc         1 BVL       0.051200
     40 H17         -4.2420    -2.4900    -0.3930 ha         1 BVL       0.174000
     41 H20         -2.4450    -4.5850    -2.3970 hc         1 BVL       0.037033
     42 H20A        -3.2120    -5.6080    -1.2030 hc         1 BVL       0.037033
     43 H20B        -4.0950    -4.2320    -1.8710 hc         1 BVL       0.037033
     44 H19         -1.1920    -5.1600     0.3480 hc         1 BVL       0.037033
     45 H19A        -0.4770    -4.0370    -0.7880 hc         1 BVL       0.037033
     46 H19B        -0.8170    -3.5170     0.8580 hc         1 BVL       0.037033
     47 C7           2.6420     1.5550    -0.2420 cf         1 BVL      -0.054200
@<TRIPOS>BOND
     1     1     8 ar  
     2     1     9 ar  
     3     1    25 1   
     4     2     3 ar  
     5     2     9 ar  
     6     2    10 1   
     7     3     4 ar  
     8     3    26 1   
     9     4     8 ar  
    10     4    27 1   
    11     5     6 2   
    12     6     7 1   
    13     6    11 1   
    14     7    28 1   
    15     7    47 2   
    16     8    47 1   
    17     9    30 1   
    18    10    31 1   
    19    11    12 ar  
    20    11    19 ar  
    21    12    13 1   
    22    12    14 ar  
    23    13    32 1   
    24    14    15 ar  
    25    14    33 1   
    26    15    16 1   
    27    15    18 ar  
    28    16    17 1   
    29    17    34 1   
    30    17    35 1   
    31    17    36 1   
    32    18    19 ar  
    33    18    20 1   
    34    19    37 1   
    35    20    21 1   
    36    20    38 1   
    37    20    39 1   
    38    21    22 2   
    39    21    40 1   
    40    22    23 1   
    41    22    24 1   
    42    23    41 1   
    43    23    42 1   
    44    23    43 1   
    45    24    44 1   
    46    24    45 1   
    47    24    46 1   
    48    29    47 1   
@<TRIPOS>SUBSTRUCTURE
     1 BVL         1 TEMP              0 ****  ****    0 ROOT
