@<TRIPOS>MOLECULE
BVL
   47    48     1     0     0
SMALL
No Charge or Current Charge


@<TRIPOS>ATOM
      1 C2           5.0920     1.2750    -0.1660 ca         1 BVL      -0.040500
      2 C4           6.1950    -0.8930    -0.1900 ca         1 BVL       0.160100
      3 C5           4.9460    -1.5280    -0.1490 ca         1 BVL      -0.185500
      4 C6           3.7660    -0.7630    -0.1170 ca         1 BVL      -0.040500
      5 O24          0.3360     3.2520    -0.1370 o          1 BVL      -0.603100
      6 C9           0.1400     2.0450    -0.0440 c          1 BVL       0.614900
      7 C8           1.2970     1.1000    -0.0590 ce         1 BVL      -0.314200
      8 C1           3.8280     0.6490    -0.1250 ca         1 BVL      -0.124800
      9 C3           6.2680     0.5060    -0.1980 ca         1 BVL      -0.185500
     10 O25          7.3420    -1.6280    -0.2220 oh         1 BVL      -0.527100
     11 C10         -1.2760     1.5280     0.0820 ca         1 BVL      -0.329600
     12 C11         -2.3700     2.3350    -0.2900 ca         1 BVL       0.263100
     13 O23         -2.1760     3.5960    -0.7490 oh         1 BVL      -0.552100
     14 C12         -3.6810     1.8580    -0.2030 ca         1 BVL      -0.284000
     15 C13         -3.9370     0.5610     0.2760 ca         1 BVL       0.223100
     16 O21         -5.2210     0.0570     0.3630 os         1 BVL      -0.335100
     17 C22         -6.3770     0.8120    -0.0400 c3         1 BVL       0.145900
     18 C14         -2.8600    -0.2510     0.6850 ca         1 BVL      -0.170300
     19 C15         -1.5430     0.2350     0.5870 ca         1 BVL       0.015000
     20 C16         -3.0900    -1.6620     1.2210 c3         1 BVL       0.027100
     21 C17         -3.1260    -2.6830     0.0990 c2         1 BVL      -0.211200
     22 C18         -2.1500    -3.5230    -0.2990 c2         1 BVL      -0.120400
     23 C20         -2.3480    -4.5090    -1.4360 c3         1 BVL      -0.054400
     24 C19         -0.7500    -3.6110     0.2930 c3         1 BVL      -0.054400
     25 H2           5.1660     2.3600    -0.1730 ha         1 BVL       0.117000
     26 H5           4.8780    -2.6130    -0.1420 ha         1 BVL       0.124500
     27 H6           2.8110    -1.2790    -0.0840 ha         1 BVL       0.117000
     28 H8           1.0610     0.0440    -0.0740 ha         1 BVL       0.184000
     29 H7           2.8110     2.5590    -0.0900 ha         1 BVL       0.193000
     30 H3           7.2370     0.9980    -0.2300 ha         1 BVL       0.124500
     31 HO25         7.1000    -2.5780    -0.2110 ho         1 BVL       0.469000
     32 HO23        -1.2080     3.7710    -0.6190 ho         1 BVL       0.523000
     33 H12         -4.4870     2.5140    -0.5140 ha         1 BVL       0.136000
     34 H22         -7.2890     0.2200     0.1100 h1         1 BVL       0.046033
     35 H22A        -6.4690     1.7310     0.5520 h1         1 BVL       0.046033
     36 H22B        -6.3180     1.0800    -1.1020 h1         1 BVL       0.046033
     37 H15         -0.7370    -0.4070     0.9300 ha         1 BVL       0.112000
     38 H16         -2.3220    -1.9110     1.9620 hc         1 BVL       0.051200
     39 H16A        -4.0290    -1.7090     1.7860 hc         1 BVL       0.051200
     40 H17         -4.0910    -2.7070    -0.4090 ha         1 BVL       0.174000
     41 H20         -1.6370    -4.3220    -2.2500 hc         1 BVL       0.037033
     42 H20A        -2.2020    -5.5410    -1.0950 hc         1 BVL       0.037033
     43 H20B        -3.3570    -4.4440    -1.8610 hc         1 BVL       0.037033
     44 H19         -0.5670    -4.6050     0.7190 hc         1 BVL       0.037033
     45 H19A         0.0110    -3.4370    -0.4780 hc         1 BVL       0.037033
     46 H19B        -0.5680    -2.8800     1.0870 hc         1 BVL       0.037033
     47 C7           2.6080     1.4850    -0.0910 cf         1 BVL      -0.054200
@<TRIPOS>BOND
     1     1     8 ar  
     2     1     9 ar  
     3     1    25 1   
     4     2     3 ar  
     5     2     9 ar  
     6     2    10 1   
     7     3     4 ar  
     8     3    26 1   
     9     4     8 ar  
    10     4    27 1   
    11     5     6 2   
    12     6     7 1   
    13     6    11 1   
    14     7    28 1   
    15     7    47 2   
    16     8    47 1   
    17     9    30 1   
    18    10    31 1   
    19    11    12 ar  
    20    11    19 ar  
    21    12    13 1   
    22    12    14 ar  
    23    13    32 1   
    24    14    15 ar  
    25    14    33 1   
    26    15    16 1   
    27    15    18 ar  
    28    16    17 1   
    29    17    34 1   
    30    17    35 1   
    31    17    36 1   
    32    18    19 ar  
    33    18    20 1   
    34    19    37 1   
    35    20    21 1   
    36    20    38 1   
    37    20    39 1   
    38    21    22 2   
    39    21    40 1   
    40    22    23 1   
    41    22    24 1   
    42    23    41 1   
    43    23    42 1   
    44    23    43 1   
    45    24    44 1   
    46    24    45 1   
    47    24    46 1   
    48    29    47 1   
@<TRIPOS>SUBSTRUCTURE
     1 BVL         1 TEMP              0 ****  ****    0 ROOT
