@<TRIPOS>MOLECULE
BVM
   84    89     1     0     0
SMALL
No Charge or Current Charge


@<TRIPOS>ATOM
      1 C13         -2.3700     3.7120    -0.9490 ce         1 BVM      -0.107200
      2 C18         -1.3470    -1.2310    -0.5860 c6         1 BVM       0.075000
      3 C15         -1.9270     1.2320    -0.7580 c          1 BVM       0.600300
      4 C19         -0.1170    -2.0610    -0.9880 ca         1 BVM      -0.090300
      5 C20          1.1080    -1.8380    -0.3310 ca         1 BVM      -0.019300
      6 C21          1.1400    -0.6990     0.6890 c6         1 BVM      -0.055100
      7 C22          0.3280     0.5270     0.2020 c6         1 BVM       0.122000
      8 C23         -0.2130    -3.0420    -1.9920 ca         1 BVM      -0.076000
      9 C24          0.9070    -3.8150    -2.3250 ca         1 BVM      -0.112000
     10 C34         -4.0270    -6.4440     1.3690 ca         1 BVM      -0.068500
     11 C27         -2.0650    -1.9010     0.6230 c          1 BVM       0.605100
     12 C33         -4.5550    -6.1710     2.6510 ca         1 BVM      -0.144600
     13 C2          -2.4700     7.4950    -1.5540 ca         1 BVM      -0.099000
     14 C3          -1.5470     7.9430    -0.5950 ca         1 BVM      -0.095000
     15 C4          -0.8980     7.0180     0.2330 ca         1 BVM       0.126000
     16 C5          -1.1680     5.6470     0.1070 ca         1 BVM      -0.091000
     17 C6          -2.0910     5.1790    -0.8530 ca         1 BVM      -0.015800
     18 C7          -2.7480     6.1180    -1.6920 ca         1 BVM       0.007800
     19 N8          -3.6620     5.7150    -2.6680 na         1 BVM      -0.000500
     20 C9          -4.9630     6.1160    -2.7370 cc         1 BVM       0.392400
     21 N10         -5.4270     5.6110    -3.8670 nd         1 BVM      -0.376000
     22 N11         -4.3740     4.9380    -4.4630 nd         1 BVM      -0.035000
     23 N12         -3.2760     5.0160    -3.7550 nc         1 BVM      -0.185800
     24 C14         -1.5470     2.6720    -0.6170 cf         1 BVM      -0.249200
     25 O16         -3.0290     0.9320    -1.1960 o          1 BVM      -0.580100
     26 N17         -1.0120     0.2210    -0.3830 n          1 BVM      -0.393800
     27 C25          2.1240    -3.6150    -1.6560 ca         1 BVM      -0.080000
     28 C26          2.2440    -2.6240    -0.6560 ca         1 BVM      -0.140600
     29 O28         -2.2120    -1.3200     1.6970 o          1 BVM      -0.584100
     30 N29         -2.4950    -3.2020     0.3770 ns         1 BVM      -0.119000
     31 C30         -3.1850    -4.1570     1.1750 ca         1 BVM      -0.069000
     32 C31         -3.7130    -3.8760     2.4520 ca         1 BVM      -0.169000
     33 C32         -4.3880    -4.8720     3.1810 ca         1 BVM      -0.068500
     34 C35         -3.3540    -5.4470     0.6430 ca         1 BVM      -0.169000
     35 O37         -5.7240    -6.9660     4.5460 o          1 BVM      -0.722500
     36 O38         -5.4070    -8.3570     2.9410 o          1 BVM      -0.722500
     37 C39          3.5610    -2.4680     0.0710 c          1 BVM       0.614700
     38 O40          3.6040    -2.4700     1.2950 o          1 BVM      -0.576100
     39 N41          4.7480    -2.4490    -0.6970 n          1 BVM      -0.409800
     40 C42          6.0900    -2.5100    -0.0550 c6         1 BVM       0.101000
     41 C43          6.7930    -1.1350    -0.0960 c6         1 BVM      -0.146700
     42 C44          6.8270    -0.4940    -1.5070 c6         1 BVM      -0.065400
     43 C45          5.4140    -0.5060    -2.1370 c6         1 BVM      -0.100400
     44 C46          4.7890    -1.9220    -2.0920 c6         1 BVM       0.101000
     45 C47          8.1540    -1.1410     0.6150 c          1 BVM       0.598100
     46 O48          8.1960    -0.3460     1.7320 os         1 BVM      -0.444100
     47 O49          9.1010    -1.8000     0.2090 o          1 BVM      -0.495000
     48 C50          9.4280    -0.2820     2.4700 c3         1 BVM       0.167600
     49 C51          9.2030     0.6660     3.6580 c3         1 BVM      -0.098100
     50 H56         -3.3590     3.4660    -1.3430 ha         1 BVM       0.220000
     51 H58         -2.0630    -1.3080    -1.4150 h1         1 BVM       0.073700
     52 H60          0.7300    -1.0570     1.6430 hc         1 BVM       0.078200
     53 H59          2.1630    -0.3640     0.8990 hc         1 BVM       0.078200
     54 H62          0.2050     1.2170     1.0490 h1         1 BVM       0.039200
     55 H61          0.9200     1.0470    -0.5640 h1         1 BVM       0.039200
     56 H63         -1.1540    -3.2110    -2.5120 ha         1 BVM       0.121000
     57 H64          0.8300    -4.5800    -3.0950 ha         1 BVM       0.119000
     58 H69         -4.1380    -7.4330     0.9280 ha         1 BVM       0.128000
     59 H52         -2.9630     8.2200    -2.1980 ha         1 BVM       0.132000
     60 H53         -1.3350     9.0050    -0.4950 ha         1 BVM       0.137000
     61 H54         -0.6650     4.9520     0.7730 ha         1 BVM       0.141000
     62 H55         -5.4720     6.7200    -1.9960 h5         1 BVM       0.077100
     63 H57         -0.5530     2.9000    -0.2450 ha         1 BVM       0.179000
     64 H65          2.9770    -4.2430    -1.9090 ha         1 BVM       0.117000
     65 H66         -2.2680    -3.5400    -0.5490 hn         1 BVM       0.138000
     66 H67         -3.6180    -2.8920     2.8990 ha         1 BVM       0.101500
     67 H68         -4.7840    -4.6250     4.1640 ha         1 BVM       0.128000
     68 H70         -2.9580    -5.6850    -0.3420 ha         1 BVM       0.101500
     69 H72          6.0130    -2.8600     0.9850 h1         1 BVM       0.071700
     70 H73          6.7050    -3.2480    -0.5930 h1         1 BVM       0.071700
     71 H74          6.1670    -0.4700     0.5160 hc         1 BVM       0.085700
     72 H76          7.2060     0.5360    -1.4510 hc         1 BVM       0.055200
     73 H75          7.5210    -1.0510    -2.1510 hc         1 BVM       0.055200
     74 H78          4.7620     0.1960    -1.5990 hc         1 BVM       0.049700
     75 H77          5.4640    -0.1530    -3.1760 hc         1 BVM       0.049700
     76 H80          5.3830    -2.6060    -2.7150 h1         1 BVM       0.056700
     77 H79          3.7860    -1.8710    -2.5340 h1         1 BVM       0.056700
     78 H81          9.7130    -1.2750     2.8430 h1         1 BVM       0.045200
     79 H82         10.2420     0.1030     1.8420 h1         1 BVM       0.045200
     80 H84         10.1180     0.7490     4.2550 hc         1 BVM       0.048700
     81 H85          8.9300     1.6680     3.3060 hc         1 BVM       0.048700
     82 H83          8.4020     0.2910     4.3060 hc         1 BVM       0.048700
     83 Cl1          0.2530     7.5780     1.4400 cl         1 BVM      -0.186000
     84 C36         -5.2840    -7.2470     3.4390 c          1 BVM       0.714600
@<TRIPOS>BOND
     1     1    17 1   
     2     1    24 2   
     3     1    50 1   
     4     2     4 1   
     5     2    11 1   
     6     2    26 1   
     7     2    51 1   
     8     3    24 1   
     9     3    25 2   
    10     3    26 1   
    11     4     5 ar  
    12     4     8 ar  
    13     5     6 1   
    14     5    28 ar  
    15     6     7 1   
    16     6    52 1   
    17     6    53 1   
    18     7    26 1   
    19     7    54 1   
    20     7    55 1   
    21     8     9 ar  
    22     8    56 1   
    23     9    27 ar  
    24     9    57 1   
    25    10    12 ar  
    26    10    34 ar  
    27    10    58 1   
    28    11    29 2   
    29    11    30 1   
    30    12    33 ar  
    31    12    84 1   
    32    13    14 ar  
    33    13    18 ar  
    34    13    59 1   
    35    14    15 ar  
    36    14    60 1   
    37    15    16 ar  
    38    15    83 1   
    39    16    17 ar  
    40    16    61 1   
    41    17    18 ar  
    42    18    19 1   
    43    19    20 1   
    44    19    23 1   
    45    20    21 2   
    46    20    62 1   
    47    21    22 1   
    48    22    23 2   
    49    24    63 1   
    50    27    28 ar  
    51    27    64 1   
    52    28    37 1   
    53    30    31 1   
    54    30    65 1   
    55    31    32 ar  
    56    31    34 ar  
    57    32    33 ar  
    58    32    66 1   
    59    33    67 1   
    60    34    68 1   
    61    35    84 1   
    62    36    84 1   
    63    37    38 2   
    64    37    39 1   
    65    39    40 1   
    66    39    44 1   
    67    40    41 1   
    68    40    69 1   
    69    40    70 1   
    70    41    42 1   
    71    41    45 1   
    72    41    71 1   
    73    42    43 1   
    74    42    72 1   
    75    42    73 1   
    76    43    44 1   
    77    43    74 1   
    78    43    75 1   
    79    44    76 1   
    80    44    77 1   
    81    45    46 1   
    82    45    47 2   
    83    46    48 1   
    84    48    49 1   
    85    48    78 1   
    86    48    79 1   
    87    49    80 1   
    88    49    81 1   
    89    49    82 1   
@<TRIPOS>SUBSTRUCTURE
     1 BVM         1 TEMP              0 ****  ****    0 ROOT
