@<TRIPOS>MOLECULE
BVM
   84    89     1     0     0
SMALL
bcc


@<TRIPOS>ATOM
      1 C13         -2.1490     3.1330    -0.8220 ce         1 BVM      -0.057200
      2 C18         -0.7310    -1.4490    -1.0540 c6         1 BVM       0.075000
      3 C15         -1.4390     0.8040    -0.9560 c          1 BVM       0.667300
      4 C19          0.4690    -2.3560    -1.1710 ca         1 BVM      -0.090300
      5 C20          1.6710    -2.0110    -0.5580 ca         1 BVM      -0.019300
      6 C21          1.7700    -0.6540     0.0700 c6         1 BVM      -0.055100
      7 C22          1.0000     0.3580    -0.7590 c6         1 BVM       0.122000
      8 C23          0.3390    -3.5760    -1.8240 ca         1 BVM      -0.094000
      9 C24          1.4010    -4.4660    -1.8590 ca         1 BVM      -0.130000
     10 C34         -5.3560    -4.7680     1.0720 ca         1 BVM      -0.086500
     11 C27         -1.5090    -1.8990     0.1970 c          1 BVM       0.672100
     12 C33         -5.1740    -4.8410     2.4510 ca         1 BVM      -0.144600
     13 C2          -2.8890     6.8060    -1.2580 ca         1 BVM      -0.117000
     14 C3          -1.7000     7.3840    -0.8490 ca         1 BVM      -0.113000
     15 C4          -0.6560     6.5590    -0.4610 ca         1 BVM       0.034400
     16 C5          -0.7860     5.1810    -0.4620 ca         1 BVM      -0.109000
     17 C6          -1.9820     4.5860    -0.8590 ca         1 BVM      -0.015800
     18 C7          -3.0250     5.4280    -1.2570 ca         1 BVM       0.007800
     19 N8          -4.2500     4.8740    -1.6940 na         1 BVM      -0.000500
     20 C9          -5.4960     5.1180    -1.2720 cc         1 BVM       0.392400
     21 N10         -6.3150     4.4060    -1.9980 nd         1 BVM      -0.376000
     22 N11         -5.5500     3.7340    -2.8630 nd         1 BVM      -0.035000
     23 N12         -4.3190     4.0030    -2.6990 nc         1 BVM      -0.185800
     24 C14         -1.1600     2.2600    -1.0220 cf         1 BVM      -0.199200
     25 O16         -2.5880     0.3770    -0.9510 o          1 BVM      -0.580100
     26 N17         -0.3870    -0.0470    -0.9390 n          1 BVM      -0.460800
     27 C25          2.5980    -4.1350    -1.2420 ca         1 BVM      -0.098000
     28 C26          2.7350    -2.9110    -0.6000 ca         1 BVM      -0.140600
     29 O28         -1.1790    -1.5310     1.3050 o          1 BVM      -0.584100
     30 N29         -2.5020    -2.7750    -0.0710 ns         1 BVM      -0.445100
     31 C30         -3.3570    -3.4360     0.8190 ca         1 BVM       0.023600
     32 C31         -3.1580    -3.5040     2.1980 ca         1 BVM      -0.187000
     33 C32         -4.0620    -4.2000     2.9870 ca         1 BVM      -0.086500
     34 C35         -4.4670    -4.0790     0.2670 ca         1 BVM      -0.187000
     35 O37         -5.9090    -5.6040     4.5590 o          1 BVM      -0.827800
     36 O38         -7.1190    -6.1380     2.7650 o          1 BVM      -0.827800
     37 C39          3.9900    -2.6010     0.1620 c          1 BVM       0.681700
     38 O40          3.9760    -2.6870     1.3820 o          1 BVM      -0.576100
     39 N41          5.0790    -2.2540    -0.5490 n          1 BVM      -0.476800
     40 C42          6.3170    -1.9190     0.1270 c6         1 BVM       0.101000
     41 C43          6.6200    -0.4220    -0.0440 c6         1 BVM      -0.146700
     42 C44          6.6570    -0.0560    -1.5240 c6         1 BVM      -0.065400
     43 C45          5.3690    -0.4900    -2.2130 c6         1 BVM      -0.100400
     44 C46          5.0870    -1.9670    -1.9760 c6         1 BVM       0.101000
     45 C47          7.9030    -0.0530     0.6670 c          1 BVM       0.647100
     46 O48          7.8310    -0.3200     1.9620 os         1 BVM      -0.420900
     47 O49          8.8740     0.4260     0.1370 o          1 BVM      -0.544000
     48 C50          8.9750    -0.0340     2.7830 c3         1 BVM       0.144400
     49 C51          8.6320    -0.4230     4.2000 c3         1 BVM      -0.098100
     50 H56         -3.1410     2.7540    -0.6050 ha         1 BVM       0.170000
     51 H58         -1.3570    -1.5870    -1.9410 h1         1 BVM       0.073700
     52 H60          1.3860    -0.6700     1.0920 hc         1 BVM       0.078200
     53 H59          2.8040    -0.3130     0.1300 hc         1 BVM       0.078200
     54 H62          1.0300     1.3130    -0.2420 h1         1 BVM       0.039200
     55 H61          1.4900     0.4870    -1.7290 h1         1 BVM       0.039200
     56 H63         -0.5930    -3.8350    -2.3110 ha         1 BVM       0.139000
     57 H64          1.2970    -5.4140    -2.3690 ha         1 BVM       0.137000
     58 H69         -6.2090    -5.2550     0.6190 ha         1 BVM       0.146000
     59 H52         -3.7060     7.4330    -1.5900 ha         1 BVM       0.150000
     60 H53         -1.5910     8.4590    -0.8430 ha         1 BVM       0.155000
     61 H54          0.0330     4.5630    -0.1190 ha         1 BVM       0.159000
     62 H55         -5.7470     5.7820    -0.4620 h5         1 BVM       0.077100
     63 H57         -0.1700     2.6070    -1.2880 ha         1 BVM       0.129000
     64 H65          3.4300    -4.8280    -1.2680 ha         1 BVM       0.135000
     65 H66         -2.7360    -2.8970    -1.0440 hn         1 BVM       0.304500
     66 H67         -2.3100    -3.0280     2.6620 ha         1 BVM       0.119500
     67 H68         -3.8910    -4.2440     4.0550 ha         1 BVM       0.146000
     68 H70         -4.6350    -4.0370    -0.8030 ha         1 BVM       0.119500
     69 H72          6.2350    -2.1920     1.1740 h1         1 BVM       0.071700
     70 H73          7.1260    -2.5110    -0.3140 h1         1 BVM       0.071700
     71 H74          5.8120     0.1350     0.4470 hc         1 BVM       0.085700
     72 H76          6.8070     1.0180    -1.6490 hc         1 BVM       0.055200
     73 H75          7.5060    -0.5530    -2.0020 hc         1 BVM       0.055200
     74 H78          4.5250     0.1000    -1.8420 hc         1 BVM       0.049700
     75 H77          5.4370    -0.3080    -3.2870 hc         1 BVM       0.049700
     76 H80          5.8660    -2.5770    -2.4430 h1         1 BVM       0.056700
     77 H79          4.1410    -2.2560    -2.4250 h1         1 BVM       0.056700
     78 H81          9.8370    -0.5970     2.4200 h1         1 BVM       0.045200
     79 H82          9.2170     1.0290     2.7180 h1         1 BVM       0.045200
     80 H84          9.4860    -0.2150     4.8440 hc         1 BVM       0.048700
     81 H85          7.7840     0.1480     4.5780 hc         1 BVM       0.048700
     82 H83          8.4020    -1.4850     4.2810 hc         1 BVM       0.048700
     83 CL1          0.8350     7.2620     0.0520 cl         1 BVM      -0.094400
     84 C36         -6.1540    -5.5940     3.3360 c          1 BVM       0.925200
@<TRIPOS>BOND
     1     1    17 1   
     2     1    24 2   
     3     1    50 1   
     4     2     4 1   
     5     2    11 1   
     6     2    26 1   
     7     2    51 1   
     8     3    24 1   
     9     3    25 2   
    10     3    26 1   
    11     4     5 ar  
    12     4     8 ar  
    13     5     6 1   
    14     5    28 ar  
    15     6     7 1   
    16     6    52 1   
    17     6    53 1   
    18     7    26 1   
    19     7    54 1   
    20     7    55 1   
    21     8     9 ar  
    22     8    56 1   
    23     9    27 ar  
    24     9    57 1   
    25    10    12 ar  
    26    10    34 ar  
    27    10    58 1   
    28    11    29 2   
    29    11    30 1   
    30    12    33 ar  
    31    12    84 1   
    32    13    14 ar  
    33    13    18 ar  
    34    13    59 1   
    35    14    15 ar  
    36    14    60 1   
    37    15    16 ar  
    38    15    83 1   
    39    16    17 ar  
    40    16    61 1   
    41    17    18 ar  
    42    18    19 1   
    43    19    20 1   
    44    19    23 1   
    45    20    21 2   
    46    20    62 1   
    47    21    22 1   
    48    22    23 2   
    49    24    63 1   
    50    27    28 ar  
    51    27    64 1   
    52    28    37 1   
    53    30    31 1   
    54    30    65 1   
    55    31    32 ar  
    56    31    34 ar  
    57    32    33 ar  
    58    32    66 1   
    59    33    67 1   
    60    34    68 1   
    61    35    84 1   
    62    36    84 1   
    63    37    38 2   
    64    37    39 1   
    65    39    40 1   
    66    39    44 1   
    67    40    41 1   
    68    40    69 1   
    69    40    70 1   
    70    41    42 1   
    71    41    45 1   
    72    41    71 1   
    73    42    43 1   
    74    42    72 1   
    75    42    73 1   
    76    43    44 1   
    77    43    74 1   
    78    43    75 1   
    79    44    76 1   
    80    44    77 1   
    81    45    46 1   
    82    45    47 2   
    83    46    48 1   
    84    48    49 1   
    85    48    78 1   
    86    48    79 1   
    87    49    80 1   
    88    49    81 1   
    89    49    82 1   
@<TRIPOS>SUBSTRUCTURE
     1 BVM         1 TEMP              0 ****  ****    0 ROOT
