@<TRIPOS>MOLECULE
BVN
   57    58     1     0     0
SMALL
No Charge or Current Charge


@<TRIPOS>ATOM
      1 CAH         -7.6010    -1.7170     2.7740 c3         1 BVN      -0.089100
      2 CAG         -8.0510    -0.7830     1.6310 c3         1 BVN       0.175300
      3 NAW         -7.7530    -1.2720     0.2550 n3         1 BVN      -0.727600
      4 CAV         -8.4220    -2.5690    -0.0560 c3         1 BVN       0.175300
      5 CAU         -7.9860    -3.2340    -1.3790 c3         1 BVN      -0.089100
      6 CAX         -8.0000    -0.2260    -0.7940 c3         1 BVN       0.168800
      7 CAY         -7.2170     1.1120    -0.6590 c3         1 BVN       0.170600
      8 OAZ         -5.8040     0.8270    -0.6030 os         1 BVN      -0.431100
      9 CBA         -4.9360     1.8770    -0.4660 c          1 BVN       0.616700
     10 OAI         -5.2940     3.0470    -0.4060 o          1 BVN      -0.510000
     11 CBB         -3.4870     1.4590    -0.3990 ca         1 BVN      -0.204600
     12 CAJ         -3.1130     0.0970    -0.4280 ca         1 BVN      -0.002000
     13 CAK         -1.7570    -0.2670    -0.3630 ca         1 BVN      -0.217500
     14 CBC         -2.4780     2.4410    -0.3030 ca         1 BVN      -0.002000
     15 CBD         -1.1250     2.0670    -0.2390 ca         1 BVN      -0.217500
     16 CAL         -0.7610     0.7120    -0.2690 ca         1 BVN       0.361000
     17 NAM          0.5710     0.3120    -0.2070 nu         1 BVN      -0.975200
     18 CAN          1.7590     1.1720    -0.1080 c3         1 BVN       0.234800
     19 CAO          3.0210     0.3000    -0.0670 c3         1 BVN      -0.195400
     20 CAP          4.3350     1.0880     0.0370 c          1 BVN       0.582700
     21 OAA          4.3190     2.3130     0.0810 o          1 BVN      -0.501100
     22 CAQ          5.6550     0.3350     0.0840 ca         1 BVN      -0.136600
     23 CAR          5.7160    -1.0780     0.0360 ca         1 BVN      -0.078000
     24 CAS          6.9520    -1.7480     0.0820 ca         1 BVN      -0.059000
     25 CAD          8.1610    -1.0220     0.1770 ca         1 BVN      -0.153200
     26 NAE          9.4790    -1.7370     0.2260 no         1 BVN       0.691200
     27 OAT          9.4770    -2.9750     0.1810 o          1 BVN      -0.390500
     28 OAF         10.5110    -1.0570     0.3090 o          1 BVN      -0.390500
     29 CAC          8.1050     0.3890     0.2250 ca         1 BVN      -0.059000
     30 CAB          6.8680     1.0550     0.1790 ca         1 BVN      -0.078000
     31 H1          -7.7010    -1.2040     3.7370 hc         1 BVN       0.036867
     32 H2          -8.2130    -2.6240     2.8180 hc         1 BVN       0.036867
     33 H3          -6.5500    -2.0040     2.6480 hc         1 BVN       0.036867
     34 H4          -9.1270    -0.5900     1.7380 h1         1 BVN       0.027200
     35 H5          -7.5370     0.1710     1.8030 h1         1 BVN       0.027200
     36 H7          -8.2040    -3.2980     0.7330 h1         1 BVN       0.027200
     37 H8          -9.5130    -2.4350    -0.0730 h1         1 BVN       0.027200
     38 H9          -8.3540    -2.6790    -2.2490 hc         1 BVN       0.036867
     39 H10         -6.8930    -3.3000    -1.4360 hc         1 BVN       0.036867
     40 H11         -8.3930    -4.2500    -1.4380 hc         1 BVN       0.036867
     41 H12         -7.7420    -0.6210    -1.7840 h1         1 BVN       0.041200
     42 H13         -9.0710     0.0160    -0.8250 h1         1 BVN       0.041200
     43 H14         -7.4480     1.7450    -1.5260 h1         1 BVN       0.048200
     44 H15         -7.5460     1.6480     0.2410 h1         1 BVN       0.048200
     45 H16         -3.8650    -0.6880    -0.4980 ha         1 BVN       0.131500
     46 H17         -1.4850    -1.3180    -0.3860 ha         1 BVN       0.114500
     47 H18         -2.7380     3.4980    -0.2780 ha         1 BVN       0.131500
     48 H19         -0.3670     2.8400    -0.1660 ha         1 BVN       0.114500
     49 H20          0.7280    -0.6960    -0.2350 hn         1 BVN       0.480000
     50 H21          1.8090     1.8500    -0.9720 h1         1 BVN       0.057700
     51 H22          1.7080     1.7850     0.8040 h1         1 BVN       0.057700
     52 H23          2.9960    -0.4180     0.7600 hc         1 BVN       0.072700
     53 H24          3.0930    -0.3570    -0.9410 hc         1 BVN       0.072700
     54 H25          4.8130    -1.6800    -0.0370 ha         1 BVN       0.138500
     55 H26          6.9590    -2.8360     0.0430 ha         1 BVN       0.157000
     56 H27          9.0160     0.9800     0.2980 ha         1 BVN       0.157000
     57 H28          6.8600     2.1430     0.2180 ha         1 BVN       0.138500
@<TRIPOS>BOND
     1     1     2 1   
     2     1    31 1   
     3     1    32 1   
     4     1    33 1   
     5     2     3 1   
     6     2    34 1   
     7     2    35 1   
     8     3     4 1   
     9     3     6 1   
    10     4     5 1   
    11     4    36 1   
    12     4    37 1   
    13     5    38 1   
    14     5    39 1   
    15     5    40 1   
    16     6     7 1   
    17     6    41 1   
    18     6    42 1   
    19     7     8 1   
    20     7    43 1   
    21     7    44 1   
    22     8     9 1   
    23     9    10 2   
    24     9    11 1   
    25    11    12 ar  
    26    11    14 ar  
    27    12    13 ar  
    28    12    45 1   
    29    13    16 ar  
    30    13    46 1   
    31    14    15 ar  
    32    14    47 1   
    33    15    16 ar  
    34    15    48 1   
    35    16    17 1   
    36    17    18 1   
    37    17    49 1   
    38    18    19 1   
    39    18    50 1   
    40    18    51 1   
    41    19    20 1   
    42    19    52 1   
    43    19    53 1   
    44    20    21 2   
    45    20    22 1   
    46    22    23 ar  
    47    22    30 ar  
    48    23    24 ar  
    49    23    54 1   
    50    24    25 ar  
    51    24    55 1   
    52    25    26 1   
    53    25    29 ar  
    54    26    27 1   
    55    26    28 1   
    56    29    30 ar  
    57    29    56 1   
    58    30    57 1   
@<TRIPOS>SUBSTRUCTURE
     1 BVN         1 TEMP              0 ****  ****    0 ROOT
