@<TRIPOS>MOLECULE
BVN
   57    58     1     0     0
SMALL
abcg2


@<TRIPOS>ATOM
      1 CAH         -8.0530    -1.5410     2.7260 c3         1 BVN      -0.089100
      2 CAG         -8.6120    -0.9010     1.4660 c3         1 BVN       0.175300
      3 NAW         -7.7440    -1.0780     0.3120 n3         1 BVN      -0.727600
      4 CAV         -7.8540    -2.4080    -0.2660 c3         1 BVN       0.175300
      5 CAU         -6.6310    -2.7970    -1.0810 c3         1 BVN      -0.089100
      6 CAX         -7.9280    -0.0310    -0.6730 c3         1 BVN       0.168800
      7 CAY         -7.1490     1.2250    -0.3530 c3         1 BVN       0.170600
      8 OAZ         -5.7610     0.8930    -0.3960 os         1 BVN      -0.431100
      9 CBA         -4.8740     1.8590    -0.2090 c          1 BVN       0.616700
     10 OAI         -5.1820     3.0190    -0.0370 o          1 BVN      -0.510000
     11 CBB         -3.4890     1.3650    -0.2320 ca         1 BVN      -0.204600
     12 CAJ         -3.1670     0.0060    -0.3340 ca         1 BVN      -0.002000
     13 CAK         -1.8570    -0.4140    -0.3360 ca         1 BVN      -0.217500
     14 CBC         -2.4410     2.2810    -0.1420 ca         1 BVN      -0.002000
     15 CBD         -1.1210     1.8760    -0.1530 ca         1 BVN      -0.217500
     16 CAL         -0.7970     0.5100    -0.2410 ca         1 BVN       0.361000
     17 NAM          0.4830     0.0660    -0.2170 nu         1 BVN      -0.975200
     18 CAN          1.6310     0.9380    -0.2910 c3         1 BVN       0.234800
     19 CAO          2.8970     0.1120    -0.1480 c3         1 BVN      -0.195400
     20 CAP          4.1520     0.9410    -0.1990 c          1 BVN       0.582700
     21 OAA          4.1190     2.1440    -0.3280 o          1 BVN      -0.501100
     22 CAQ          5.4670     0.2350    -0.0830 ca         1 BVN      -0.136600
     23 CAR          5.5510    -1.1470     0.0730 ca         1 BVN      -0.078000
     24 CAS          6.7820    -1.7720     0.1780 ca         1 BVN      -0.059000
     25 CAD          7.9280    -0.9970     0.1220 ca         1 BVN      -0.153200
     26 NAE          9.2290    -1.6490     0.2270 no         1 BVN       0.691200
     27 OAT          9.2510    -2.8350     0.4470 o          1 BVN      -0.390500
     28 OAF         10.2150    -0.9660     0.0880 o          1 BVN      -0.390500
     29 CAC          7.8750     0.3800    -0.0340 ca         1 BVN      -0.059000
     30 CAB          6.6390     0.9890    -0.1330 ca         1 BVN      -0.078000
     31 H1          -8.7350    -1.3910     3.5640 hc         1 BVN       0.036867
     32 H2          -7.9070    -2.6160     2.6160 hc         1 BVN       0.036867
     33 H3          -7.0920    -1.0970     2.9850 hc         1 BVN       0.036867
     34 H4          -9.6290    -1.2770     1.2670 h1         1 BVN       0.027200
     35 H5          -8.7250     0.1690     1.6530 h1         1 BVN       0.027200
     36 H7          -7.9640    -3.1270     0.5480 h1         1 BVN       0.027200
     37 H8          -8.7630    -2.5080    -0.8820 h1         1 BVN       0.027200
     38 H9          -6.4580    -2.1200    -1.9180 hc         1 BVN       0.036867
     39 H10         -5.7370    -2.7930    -0.4570 hc         1 BVN       0.036867
     40 H11         -6.7530    -3.8000    -1.4930 hc         1 BVN       0.036867
     41 H12         -7.6030    -0.3890    -1.6520 h1         1 BVN       0.041200
     42 H13         -8.9870     0.2500    -0.7940 h1         1 BVN       0.041200
     43 H14         -7.3800     1.9990    -1.0880 h1         1 BVN       0.048200
     44 H15         -7.4040     1.6190     0.6350 h1         1 BVN       0.048200
     45 H16         -3.9490    -0.7370    -0.4040 ha         1 BVN       0.131500
     46 H17         -1.6360    -1.4720    -0.4100 ha         1 BVN       0.114500
     47 H18         -2.6570     3.3390    -0.0690 ha         1 BVN       0.131500
     48 H19         -0.3450     2.6250    -0.0940 ha         1 BVN       0.114500
     49 H20          0.6280    -0.9010    -0.4590 hn         1 BVN       0.480000
     50 H21          1.6470     1.4970    -1.2340 h1         1 BVN       0.057700
     51 H22          1.5840     1.6740     0.5140 h1         1 BVN       0.057700
     52 H23          2.8790    -0.4400     0.7970 hc         1 BVN       0.072700
     53 H24          2.9500    -0.6470    -0.9370 hc         1 BVN       0.072700
     54 H25          4.6630    -1.7610     0.1160 ha         1 BVN       0.138500
     55 H26          6.8310    -2.8440     0.2970 ha         1 BVN       0.157000
     56 H27          8.7740     0.9780    -0.0760 ha         1 BVN       0.157000
     57 H28          6.5880     2.0620    -0.2500 ha         1 BVN       0.138500
@<TRIPOS>BOND
     1     1     2 1   
     2     1    31 1   
     3     1    32 1   
     4     1    33 1   
     5     2     3 1   
     6     2    34 1   
     7     2    35 1   
     8     3     4 1   
     9     3     6 1   
    10     4     5 1   
    11     4    36 1   
    12     4    37 1   
    13     5    38 1   
    14     5    39 1   
    15     5    40 1   
    16     6     7 1   
    17     6    41 1   
    18     6    42 1   
    19     7     8 1   
    20     7    43 1   
    21     7    44 1   
    22     8     9 1   
    23     9    10 2   
    24     9    11 1   
    25    11    12 ar  
    26    11    14 ar  
    27    12    13 ar  
    28    12    45 1   
    29    13    16 ar  
    30    13    46 1   
    31    14    15 ar  
    32    14    47 1   
    33    15    16 ar  
    34    15    48 1   
    35    16    17 1   
    36    17    18 1   
    37    17    49 1   
    38    18    19 1   
    39    18    50 1   
    40    18    51 1   
    41    19    20 1   
    42    19    52 1   
    43    19    53 1   
    44    20    21 2   
    45    20    22 1   
    46    22    23 ar  
    47    22    30 ar  
    48    23    24 ar  
    49    23    54 1   
    50    24    25 ar  
    51    24    55 1   
    52    25    26 1   
    53    25    29 ar  
    54    26    27 1   
    55    26    28 1   
    56    29    30 ar  
    57    29    56 1   
    58    30    57 1   
@<TRIPOS>SUBSTRUCTURE
     1 BVN         1 TEMP              0 ****  ****    0 ROOT
