@<TRIPOS>MOLECULE
BVO
   44    48     1     0     0
SMALL
No Charge or Current Charge


@<TRIPOS>ATOM
      1 C13         -0.5020     1.2930     0.2850 ca         1 BVO      -0.147000
      2 C15         -2.4210    -0.0970    -0.3770 cp         1 BVO      -0.101000
      3 C17         -0.3850    -0.0140    -1.7560 ca         1 BVO      -0.147000
      4 C20         -4.8740     0.2740     0.1510 ca         1 BVO      -0.054000
      5 C21         -6.1780    -0.2030     0.3900 ca         1 BVO      -0.088300
      6 C22         -6.4240    -1.5890     0.3530 ca         1 BVO      -0.091000
      7 C24         -4.0800    -2.0020    -0.1540 ca         1 BVO      -0.077000
      8 C28          6.5290    -0.6410     0.4570 ca         1 BVO      -0.066000
      9 C1           4.1080    -0.9950     0.5470 ca         1 BVO      -0.137600
     10 C2           5.2230    -0.2180     0.1180 ca         1 BVO      -0.126600
     11 C3           5.0380     1.0530    -0.6960 c          1 BVO       0.514200
     12 O4           5.9960     1.7250    -1.0680 o          1 BVO      -0.469100
     13 C5           3.6240     1.4090    -0.9990 cc         1 BVO       0.160500
     14 C6           2.5730     0.6540    -0.5800 cd         1 BVO      -0.224600
     15 C7           2.6920    -0.5810     0.2080 c          1 BVO       0.625300
     16 O8           1.7220    -1.2350     0.5680 o          1 BVO      -0.491100
     17 N9           1.5050     1.3530    -1.0810 na         1 BVO       0.250000
     18 N10          1.8760     2.4730    -1.7670 nd         1 BVO      -0.167800
     19 N11          3.1900     2.5030    -1.7140 nc         1 BVO      -0.294000
     20 C12          0.2140     0.8810    -0.8520 ca         1 BVO       0.043800
     21 C14         -1.7980     0.8110     0.5190 ca         1 BVO       0.217500
     22 C16         -1.6810    -0.4970    -1.5200 ca         1 BVO       0.217500
     23 F18         -2.2240    -1.3420    -2.4250 f          1 BVO      -0.155500
     24 C19         -3.8040    -0.6130    -0.1250 cp         1 BVO      -0.052000
     25 C23         -5.3780    -2.4850     0.0820 ca         1 BVO      -0.113000
     26 O26         -7.8720     1.2670    -0.5330 oh         1 BVO      -0.655000
     27 F27         -2.4400     1.2150     1.6380 f          1 BVO      -0.155500
     28 C29          6.7320    -1.8100     1.2070 ca         1 BVO      -0.089000
     29 C30          5.6340    -2.5730     1.6290 ca         1 BVO      -0.098000
     30 C31          4.3300    -2.1690     1.3020 ca         1 BVO      -0.063000
     31 H131        -0.0520     1.9830     0.9950 ha         1 BVO       0.157000
     32 H171         0.1530    -0.3380    -2.6430 ha         1 BVO       0.157000
     33 H201        -4.6890     1.3450     0.1690 ha         1 BVO       0.131000
     34 H221        -7.4270    -1.9710     0.5340 ha         1 BVO       0.113000
     35 H241        -3.2780    -2.7090    -0.3550 ha         1 BVO       0.119000
     36 H281         7.3950    -0.0640     0.1400 ha         1 BVO       0.142000
     37 H231        -5.5710    -3.5550     0.0560 ha         1 BVO       0.117000
     38 H251        -8.0790     0.2670     1.2840 h1         1 BVO       0.027200
     39 H252        -6.9190     1.6040     1.2900 h1         1 BVO       0.027200
     40 H261        -8.5950     1.8830    -0.2810 ho         1 BVO       0.446000
     41 H291         7.7420    -2.1240     1.4610 ha         1 BVO       0.125000
     42 H301         5.7930    -3.4790     2.2100 ha         1 BVO       0.125000
     43 H311         3.4910    -2.7760     1.6390 ha         1 BVO       0.138000
     44 C25         -7.3090     0.7730     0.6870 c3         1 BVO       0.209900
@<TRIPOS>BOND
     1     1    20 ar  
     2     1    21 ar  
     3     1    31 1   
     4     2    21 ar  
     5     2    22 ar  
     6     2    24 1   
     7     3    20 ar  
     8     3    22 ar  
     9     3    32 1   
    10     4     5 ar  
    11     4    24 ar  
    12     4    33 1   
    13     5     6 ar  
    14     5    44 1   
    15     6    25 ar  
    16     6    34 1   
    17     7    24 ar  
    18     7    25 ar  
    19     7    35 1   
    20     8    10 ar  
    21     8    28 ar  
    22     8    36 1   
    23     9    10 ar  
    24     9    15 1   
    25     9    30 ar  
    26    10    11 1   
    27    11    12 2   
    28    11    13 1   
    29    13    14 2   
    30    13    19 1   
    31    14    15 1   
    32    14    17 1   
    33    15    16 2   
    34    17    18 1   
    35    17    20 1   
    36    18    19 2   
    37    21    27 1   
    38    22    23 1   
    39    25    37 1   
    40    26    40 1   
    41    26    44 1   
    42    28    29 ar  
    43    28    41 1   
    44    29    30 ar  
    45    29    42 1   
    46    30    43 1   
    47    38    44 1   
    48    39    44 1   
@<TRIPOS>SUBSTRUCTURE
     1 BVO         1 TEMP              0 ****  ****    0 ROOT
