@<TRIPOS>MOLECULE
BVO
   44    48     1     0     0
SMALL
bcc


@<TRIPOS>ATOM
      1 C13         -0.7530     1.4450     0.5680 ca         1 BVO      -0.165000
      2 C15         -2.5630    -0.1070     0.0590 cp         1 BVO      -0.101000
      3 C17         -0.3660    -0.3920    -0.9630 ca         1 BVO      -0.165000
      4 C20         -5.0160     0.2640    -0.1380 ca         1 BVO      -0.072000
      5 C21         -6.3340    -0.1450     0.0390 ca         1 BVO      -0.088300
      6 C22         -6.5800    -1.3920     0.6030 ca         1 BVO      -0.109000
      7 C24         -4.2200    -1.8020     0.8120 ca         1 BVO      -0.095000
      8 C28          6.6590    -0.5200    -0.0300 ca         1 BVO      -0.084000
      9 C1           4.3380    -1.1280     0.2490 ca         1 BVO      -0.137600
     10 C2           5.3150    -0.1760    -0.0990 ca         1 BVO      -0.126600
     11 C3           4.9590     1.2030    -0.5400 c          1 BVO       0.514200
     12 O4           5.7830     2.0400    -0.8290 o          1 BVO      -0.469100
     13 C5           3.5210     1.4620    -0.5930 cc         1 BVO       0.225800
     14 C6           2.5770     0.5210    -0.2810 cd         1 BVO      -0.239200
     15 C7           2.8810    -0.8290     0.2060 c          1 BVO       0.625300
     16 O8           2.0290    -1.6130     0.5520 o          1 BVO      -0.491100
     17 N9           1.4100     1.1690    -0.4460 na         1 BVO       0.199300
     18 N10          1.6350     2.4230    -0.8330 nd         1 BVO      -0.167800
     19 N11          2.8990     2.6100    -0.9230 nc         1 BVO      -0.294000
     20 C12          0.0760     0.7220    -0.2720 ca         1 BVO       0.043800
     21 C14         -2.0560     1.0110     0.7070 ca         1 BVO       0.182400
     22 C16         -1.6750    -0.7800    -0.7710 ca         1 BVO       0.182400
     23 F18         -2.1220    -1.8470    -1.4360 f          1 BVO      -0.120400
     24 C19         -3.9590    -0.5570     0.2450 cp         1 BVO      -0.052000
     25 C23         -5.5310    -2.2130     0.9920 ca         1 BVO      -0.131000
     26 O26         -7.1750     1.4440    -1.5230 oh         1 BVO      -0.592800
     27 F27         -2.8630     1.6890     1.5240 f          1 BVO      -0.120400
     28 C29          7.0390    -1.7910     0.3760 ca         1 BVO      -0.107000
     29 C30          6.0770    -2.7290     0.7170 ca         1 BVO      -0.116000
     30 C31          4.7310    -2.3970     0.6540 ca         1 BVO      -0.081000
     31 H131        -0.3980     2.3100     1.1110 ha         1 BVO       0.175000
     32 H171         0.2740    -0.9340    -1.6450 ha         1 BVO       0.175000
     33 H201        -4.8040     1.2250    -0.5890 ha         1 BVO       0.149000
     34 H221        -7.6010    -1.7280     0.7390 ha         1 BVO       0.131000
     35 H241        -3.4040    -2.4420     1.1210 ha         1 BVO       0.137000
     36 H281         7.4130     0.2090    -0.2940 ha         1 BVO       0.160000
     37 H231        -5.7380    -3.1800     1.4310 ha         1 BVO       0.135000
     38 H251        -8.3920     0.1570    -0.4270 h1         1 BVO       0.027200
     39 H252        -7.6520     1.4580     0.4950 h1         1 BVO       0.027200
     40 H261        -7.8030     2.1650    -1.6220 ho         1 BVO       0.407000
     41 H291         8.0890    -2.0460     0.4250 ha         1 BVO       0.143000
     42 H301         6.3710    -3.7200     1.0340 ha         1 BVO       0.143000
     43 H311         3.9840    -3.1320     0.9220 ha         1 BVO       0.156000
     44 C25         -7.4780     0.7580    -0.3330 c3         1 BVO       0.186700
@<TRIPOS>BOND
     1     1    20 ar  
     2     1    21 ar  
     3     1    31 1   
     4     2    21 ar  
     5     2    22 ar  
     6     2    24 1   
     7     3    20 ar  
     8     3    22 ar  
     9     3    32 1   
    10     4     5 ar  
    11     4    24 ar  
    12     4    33 1   
    13     5     6 ar  
    14     5    44 1   
    15     6    25 ar  
    16     6    34 1   
    17     7    24 ar  
    18     7    25 ar  
    19     7    35 1   
    20     8    10 ar  
    21     8    28 ar  
    22     8    36 1   
    23     9    10 ar  
    24     9    15 1   
    25     9    30 ar  
    26    10    11 1   
    27    11    12 2   
    28    11    13 1   
    29    13    14 2   
    30    13    19 1   
    31    14    15 1   
    32    14    17 1   
    33    15    16 2   
    34    17    18 1   
    35    17    20 1   
    36    18    19 2   
    37    21    27 1   
    38    22    23 1   
    39    25    37 1   
    40    26    40 1   
    41    26    44 1   
    42    28    29 ar  
    43    28    41 1   
    44    29    30 ar  
    45    29    42 1   
    46    30    43 1   
    47    38    44 1   
    48    39    44 1   
@<TRIPOS>SUBSTRUCTURE
     1 BVO         1 TEMP              0 ****  ****    0 ROOT
