@<TRIPOS>MOLECULE
BVS
   24    24     1     0     0
SMALL
abcg2


@<TRIPOS>ATOM
      1 C10         35.5030    81.1730    62.8560 ce         1 BVS      -0.530200
      2 C13         37.5860    82.2420    63.8680 c          1 BVS       0.705200
      3 C02         31.6070    77.9070    61.6970 ca         1 BVS      -0.077300
      4 C03         32.5000    77.9990    62.7670 ca         1 BVS      -0.135000
      5 C04         33.4280    79.0270    62.8410 ca         1 BVS      -0.065000
      6 C05         33.4880    80.0070    61.8430 ca         1 BVS      -0.129600
      7 C06         32.5870    79.9210    60.7760 ca         1 BVS      -0.065000
      8 C07         31.6660    78.8900    60.7050 ca         1 BVS      -0.135000
      9 C08         34.4580    81.1300    61.8710 c          1 BVS       0.589900
     10 C11         36.4260    82.1830    62.8560 cf         1 BVS       0.167900
     11 O09         34.3580    82.0390    61.0060 o          1 BVS      -0.667100
     12 O12         36.3900    83.1610    61.9660 oh         1 BVS      -0.525100
     13 O14         37.4540    81.5290    64.8880 o          1 BVS      -0.685500
     14 O15         38.5410    82.9870    63.5620 o          1 BVS      -0.685500
     15 H1          35.6000    80.4120    63.6090 ha         1 BVS       0.210000
     16 H2          31.0760    75.9270    61.0690 hc         1 BVS       0.034700
     17 H3          30.3360    76.4160    62.5900 hc         1 BVS       0.034700
     18 H4          29.7330    77.0660    61.0540 hc         1 BVS       0.034700
     19 H5          32.4660    77.2550    63.5540 ha         1 BVS       0.101500
     20 H6          34.0960    79.0650    63.6900 ha         1 BVS       0.132000
     21 H7          32.6210    80.6760    60.0020 ha         1 BVS       0.132000
     22 H8          30.9770    78.8430    59.8690 ha         1 BVS       0.101500
     23 H9          35.5860    82.9590    61.3880 ho         1 BVS       0.498000
     24 C01         30.6290    76.7710    61.6020 c3         1 BVS      -0.042800
@<TRIPOS>BOND
     1     1     9 1   
     2     1    10 2   
     3     1    15 1   
     4     2    10 1   
     5     2    13 1   
     6     2    14 1   
     7     3     4 ar  
     8     3     8 ar  
     9     3    24 1   
    10     4     5 ar  
    11     4    19 1   
    12     5     6 ar  
    13     5    20 1   
    14     6     7 ar  
    15     6     9 1   
    16     7     8 ar  
    17     7    21 1   
    18     8    22 1   
    19     9    11 2   
    20    10    12 1   
    21    12    23 1   
    22    16    24 1   
    23    17    24 1   
    24    18    24 1   
@<TRIPOS>SUBSTRUCTURE
     1 BVS         1 TEMP              0 ****  ****    0 ROOT
