@<TRIPOS>MOLECULE
BVS
   24    24     1     0     0
SMALL
No Charge or Current Charge


@<TRIPOS>ATOM
      1 C10         35.5870    81.2180    62.7430 ce         1 BVS      -0.530200
      2 C13         37.6780    82.1820    63.8870 c          1 BVS       0.705200
      3 C02         31.5930    77.8850    61.6980 ca         1 BVS      -0.077300
      4 C03         32.4350    78.0510    62.8110 ca         1 BVS      -0.135000
      5 C04         33.3570    79.1110    62.8600 ca         1 BVS      -0.065000
      6 C05         33.4580    80.0280    61.7870 ca         1 BVS      -0.129600
      7 C06         32.5990    79.8580    60.6770 ca         1 BVS      -0.065000
      8 C07         31.6800    78.7960    60.6320 ca         1 BVS      -0.135000
      9 C08         34.4340    81.1900    61.7950 c          1 BVS       0.589900
     10 C11         36.4980    82.2310    62.8870 cf         1 BVS       0.167900
     11 O09         34.2880    82.1360    61.0290 o          1 BVS      -0.667100
     12 O12         36.3370    83.3150    62.1050 oh         1 BVS      -0.525100
     13 O14         37.8140    81.1880    64.5950 o          1 BVS      -0.685500
     14 O15         38.4470    83.1370    63.9480 o          1 BVS      -0.685500
     15 H1          35.7240    80.3370    63.3620 ha         1 BVS       0.210000
     16 H2          31.0540    75.8460    61.1950 hc         1 BVS       0.034700
     17 H3          30.2550    76.4600    62.6530 hc         1 BVS       0.034700
     18 H4          29.7130    76.9960    61.0580 hc         1 BVS       0.034700
     19 H5          32.3730    77.3570    63.6470 ha         1 BVS       0.101500
     20 H6          33.9680    79.2150    63.7520 ha         1 BVS       0.132000
     21 H7          32.6470    80.5490    59.8370 ha         1 BVS       0.132000
     22 H8          31.0340    78.6830    59.7640 ha         1 BVS       0.101500
     23 H9          35.5400    83.0820    61.5560 ho         1 BVS       0.498000
     24 C01         30.5990    76.7350    61.6490 c3         1 BVS      -0.042800
@<TRIPOS>BOND
     1     1     9 1   
     2     1    10 2   
     3     1    15 1   
     4     2    10 1   
     5     2    13 1   
     6     2    14 1   
     7     3     4 ar  
     8     3     8 ar  
     9     3    24 1   
    10     4     5 ar  
    11     4    19 1   
    12     5     6 ar  
    13     5    20 1   
    14     6     7 ar  
    15     6     9 1   
    16     7     8 ar  
    17     7    21 1   
    18     8    22 1   
    19     9    11 2   
    20    10    12 1   
    21    12    23 1   
    22    16    24 1   
    23    17    24 1   
    24    18    24 1   
@<TRIPOS>SUBSTRUCTURE
     1 BVS         1 TEMP              0 ****  ****    0 ROOT
