@<TRIPOS>MOLECULE
BVT
  140   147     1     0     0
SMALL
bcc


@<TRIPOS>ATOM
      1 C1          47.4400    35.5810    51.3610 ca         1 BVT       0.452800
      2 C2          47.2940    36.8550    51.8870 ca         1 BVT      -0.219200
      3 C3          47.5640    36.9980    53.2600 ca         1 BVT       0.768200
      4 C4          46.8140    37.0220    49.8390 cc         1 BVT       0.447700
      5 N1          47.9370    35.9090    53.9420 nb         1 BVT      -0.854000
      6 N2          47.8100    34.4890    52.0250 nb         1 BVT      -0.731000
      7 C5          32.8940    49.2210    44.0980 ca         1 BVT      -0.152000
      8 C6          33.2650    49.7020    42.8570 ca         1 BVT      -0.113000
      9 C7          33.5720    48.8310    41.7980 ca         1 BVT      -0.163000
     10 C8          33.5110    47.4610    41.9620 ca         1 BVT      -0.077000
     11 C9          33.1360    46.9440    43.2080 ca         1 BVT      -0.096800
     12 C10         32.8370    47.8370    44.2600 ca         1 BVT      -0.049200
     13 N3          32.5150    47.0850    45.3520 na         1 BVT      -0.177400
     14 C11         32.5970    45.7600    45.0280 cc         1 BVT      -0.095100
     15 C12         32.9710    45.6160    43.7220 cd         1 BVT      -0.142400
     16 C13         33.2700    44.3410    43.0090 c3         1 BVT      -0.010200
     17 C14         34.7810    44.1570    42.7820 c3         1 BVT       0.032700
     18 C15         35.5080    44.2080    44.1240 c          1 BVT       0.655100
     19 O1          35.4290    43.2660    44.9030 o          1 BVT      -0.629100
     20 N4          36.1730    45.3370    44.3750 ns         1 BVT      -0.548900
     21 C16         36.8750    45.6150    45.6180 c3         1 BVT       0.109700
     22 C17         36.7500    47.0960    45.9450 c3         1 BVT      -0.109600
     23 C18         38.3300    45.1730    45.5310 c3         1 BVT      -0.109600
     24 N5          35.0900    42.8950    42.1570 ns         1 BVT      -0.554900
     25 C19         35.4450    42.7600    40.8700 c          1 BVT       0.667100
     26 O2          35.3840    43.6550    40.0440 o          1 BVT      -0.615100
     27 C20         36.0510    41.3980    40.5290 c3         1 BVT       0.050700
     28 N6          35.6210    40.9460    39.2330 ns         1 BVT      -0.545900
     29 C21         34.3160    40.7530    38.9680 c          1 BVT       0.755100
     30 O3          33.4270    40.8800    39.7850 o          1 BVT      -0.603000
     31 O4          34.1280    40.3940    37.6950 os         1 BVT      -0.432900
     32 C22         32.7780    40.1520    37.2810 c3         1 BVT       0.208700
     33 C23         32.8330    39.7630    35.8350 ca         1 BVT      -0.093300
     34 C24         32.8500    38.4230    35.4650 ca         1 BVT      -0.101500
     35 C25         32.9260    38.0600    34.1270 ca         1 BVT      -0.136500
     36 C26         32.9920    39.0400    33.1450 ca         1 BVT      -0.124000
     37 C27         32.9760    40.3820    33.5060 ca         1 BVT      -0.136500
     38 C28         32.8980    40.7400    34.8440 ca         1 BVT      -0.101500
     39 C29         37.5790    41.5110    40.5370 c3         1 BVT      -0.088400
     40 C30         38.1510    42.0200    41.8520 c3         1 BVT      -0.076400
     41 C31         39.6720    41.9800    41.8800 c3         1 BVT      -0.083400
     42 C32         40.2050    42.5760    43.1700 c3         1 BVT       0.185800
     43 N7          41.6510    42.5030    43.2240 n7         1 BVT      -0.798200
     44 C33         42.2590    43.0270    44.3900 c5         1 BVT       0.806300
     45 N8          41.9440    44.3970    44.5660 n7         1 BVT      -0.866200
     46 C34         42.4640    45.3240    43.5690 c3         1 BVT       0.200800
     47 C35         42.0750    46.7490    43.9230 c3         1 BVT      -0.212400
     48 C36         42.6650    47.3060    45.2350 c          1 BVT       0.927600
     49 O5          42.5780    48.5360    45.3960 o          1 BVT      -0.854800
     50 O6          43.1910    46.4910    46.0290 o          1 BVT      -0.854800
     51 O7          43.6180    42.7130    44.2810 os         1 BVT      -0.382600
     52 S1          41.7370    42.1700    46.0080 ss         1 BVT      -0.575200
     53 C37         43.4540    41.9840    46.5410 c5         1 BVT       0.245200
     54 O8          43.9010    40.6510    46.5370 os         1 BVT      -0.400600
     55 C38         44.2970    42.7400    45.5100 c5         1 BVT       0.076100
     56 C39         45.5330    41.8450    45.3820 c5         1 BVT       0.182100
     57 O9          46.2770    42.0900    44.2380 oh         1 BVT      -0.654800
     58 C40         44.8770    40.4620    45.5240 c5         1 BVT       0.051100
     59 C41         45.7790    39.3410    46.0210 c3         1 BVT       0.213400
     60 O10         46.9310    39.1150    45.2380 os         1 BVT      -0.602200
     61 P1          46.9080    38.7450    43.6430 p5         1 BVT       1.502800
     62 O11         48.2650    38.2260    43.3200 o          1 BVT      -0.831000
     63 O12         46.3390    39.9240    42.8840 o          1 BVT      -0.831000
     64 O13         45.7570    37.6010    43.5600 os         1 BVT      -0.735800
     65 P2          45.6010    35.9970    43.9290 p5         1 BVT       1.489800
     66 O14         45.5620    35.2450    42.6410 o          1 BVT      -0.851000
     67 O15         44.4940    35.9090    44.9340 o          1 BVT      -0.851000
     68 O16         47.0370    35.6220    44.6280 os         1 BVT      -0.578200
     69 C42         47.3310    35.9190    45.9780 c3         1 BVT       0.195400
     70 C43         47.5600    34.6290    46.7590 c5         1 BVT       0.117100
     71 O17         48.0790    34.9670    48.0510 os         1 BVT      -0.416600
     72 C44         46.3040    33.8060    47.0220 c5         1 BVT       0.088100
     73 O18         46.6830    32.4620    47.1950 oh         1 BVT      -0.603800
     74 C45         45.8260    34.4140    48.3420 c5         1 BVT       0.057100
     75 O19         45.0170    33.5820    49.1210 oh         1 BVT      -0.604800
     76 C46         47.1560    34.6490    49.0540 c5         1 BVT       0.257800
     77 N9          47.1220    35.7020    50.0370 na         1 BVT      -0.246000
     78 N10         46.9060    37.7420    50.9160 nd         1 BVT      -0.571100
     79 C47         48.0380    34.7470    53.3020 ca         1 BVT       0.679900
     80 N11         47.4630    38.1650    53.8990 nv         1 BVT      -0.969500
     81 H1          46.5330    37.4000    48.8670 h5         1 BVT       0.099800
     82 H4          33.8620    49.2450    40.8400 ha         1 BVT       0.127000
     83 H5          33.7510    46.7980    41.1380 ha         1 BVT       0.144000
     84 H6          32.2400    47.4450    46.2510 hn         1 BVT       0.294700
     85 H7          32.3860    45.0010    45.7660 h4         1 BVT       0.168000
     86 H8          32.7810    44.3140    42.0320 hc         1 BVT       0.059700
     87 H9          32.8910    43.4900    43.5790 hc         1 BVT       0.059700
     88 H10         35.1390    44.9510    42.1250 h1         1 BVT       0.081700
     89 H11         36.2050    46.0460    43.6580 hn         1 BVT       0.316500
     90 H12         36.3770    45.0420    46.4020 h1         1 BVT       0.059700
     91 H13         37.2470    47.3160    46.8900 hc         1 BVT       0.049700
     92 H14         37.2190    47.7110    45.1730 hc         1 BVT       0.049700
     93 H15         35.7050    47.3950    46.0340 hc         1 BVT       0.049700
     94 H16         38.8460    45.3620    46.4730 hc         1 BVT       0.049700
     95 H17         38.4070    44.1080    45.3120 hc         1 BVT       0.049700
     96 H18         38.8560    45.7180    44.7450 hc         1 BVT       0.049700
     97 H19         35.1410    42.0910    42.7630 hn         1 BVT       0.336500
     98 H20         35.7590    40.6660    41.2900 h1         1 BVT       0.071700
     99 H21         36.2920    40.9040    38.4810 hn         1 BVT       0.339500
    100 H22         32.1750    41.0520    37.4200 h1         1 BVT       0.053200
    101 H23         32.3390    39.3520    37.8790 h1         1 BVT       0.053200
    102 H24         32.7980    37.6550    36.2290 ha         1 BVT       0.135500
    103 H25         32.9350    37.0140    33.8510 ha         1 BVT       0.127000
    104 H26         33.0500    38.7600    32.1010 ha         1 BVT       0.123000
    105 H27         33.0230    41.1490    32.7450 ha         1 BVT       0.127000
    106 H28         32.8810    41.7870    35.1220 ha         1 BVT       0.135500
    107 H29         37.9840    40.5180    40.3230 hc         1 BVT       0.056700
    108 H30         37.8960    42.1650    39.7190 hc         1 BVT       0.056700
    109 H31         37.8230    43.0480    42.0370 hc         1 BVT       0.044200
    110 H32         37.7610    41.4200    42.6800 hc         1 BVT       0.044200
    111 H33         40.0110    40.9440    41.7750 hc         1 BVT       0.049200
    112 H34         40.0820    42.5320    41.0280 hc         1 BVT       0.049200
    113 H35         39.8970    43.6200    43.2400 h1         1 BVT       0.043700
    114 H36         41.9560    41.5470    43.0830 hn         1 BVT       0.399800
    115 H38         42.2260    44.7330    45.4800 hn         1 BVT       0.432800
    116 H40         42.0460    45.0660    42.5950 h1         1 BVT       0.023200
    117 H41         43.5560    45.2610    43.4690 h1         1 BVT       0.023200
    118 H42         42.3660    47.4080    43.1000 hc         1 BVT       0.016200
    119 H43         40.9820    46.8210    43.9840 hc         1 BVT       0.016200
    120 H45         43.5600    42.3880    47.5490 h2         1 BVT       0.079700
    121 H46         44.5130    43.7670    45.8270 h1         1 BVT       0.093700
    122 H47         46.1470    42.0100    46.2820 h1         1 BVT       0.029700
    123 H48         46.2620    41.2920    43.6520 ho         1 BVT       0.506000
    124 H49         44.3950    40.1730    44.5830 h1         1 BVT       0.100700
    125 H50         46.1370    39.6030    47.0200 h1         1 BVT       0.027200
    126 H51         45.1880    38.4230    46.1130 h1         1 BVT       0.027200
    127 H54         48.2480    36.5130    46.0110 h1         1 BVT       0.044200
    128 H55         46.5470    36.5130    46.4550 h1         1 BVT       0.044200
    129 H56         48.3080    34.0250    46.2350 h1         1 BVT       0.095700
    130 H57         45.5590    33.9240    46.2300 h1         1 BVT       0.117700
    131 H58         45.9740    32.0120    47.6690 ho         1 BVT       0.400000
    132 H59         45.3340    35.3720    48.1330 h1         1 BVT       0.088700
    133 H60         44.1030    33.6820    48.8380 ho         1 BVT       0.418000
    134 H61         47.4510    33.7450    49.5990 h2         1 BVT       0.096700
    135 H62         48.3450    33.9040    53.9120 h5         1 BVT       0.025100
    136 H63         47.6760    38.2270    54.8790 hn         1 BVT       0.444300
    137 H64         47.1950    39.0030    53.4130 hn         1 BVT       0.444300
    138 H37         39.7390    42.0550    44.0230 h1         1 BVT       0.043700
    139 H2          32.6600    49.8930    44.9130 ha         1 BVT       0.123000
    140 H3          33.3220    50.7710    42.6980 ha         1 BVT       0.120000
@<TRIPOS>BOND
     1     1     2 ar  
     2     1     6 ar  
     3     1    77 1   
     4     2     3 ar  
     5     2    78 1   
     6     3     5 ar  
     7     3    80 1   
     8     4    77 1   
     9     4    78 2   
    10     4    81 1   
    11     5    79 ar  
    12     6    79 ar  
    13     7     8 ar  
    14     7    12 ar  
    15     7   139 1   
    16     8     9 ar  
    17     8   140 1   
    18     9    10 ar  
    19     9    82 1   
    20    10    11 ar  
    21    10    83 1   
    22    11    12 ar  
    23    11    15 1   
    24    12    13 1   
    25    13    14 1   
    26    13    84 1   
    27    14    15 2   
    28    14    85 1   
    29    15    16 1   
    30    16    17 1   
    31    16    86 1   
    32    16    87 1   
    33    17    18 1   
    34    17    24 1   
    35    17    88 1   
    36    18    19 2   
    37    18    20 1   
    38    20    21 1   
    39    20    89 1   
    40    21    22 1   
    41    21    23 1   
    42    21    90 1   
    43    22    91 1   
    44    22    92 1   
    45    22    93 1   
    46    23    94 1   
    47    23    95 1   
    48    23    96 1   
    49    24    25 1   
    50    24    97 1   
    51    25    26 2   
    52    25    27 1   
    53    27    28 1   
    54    27    39 1   
    55    27    98 1   
    56    28    29 1   
    57    28    99 1   
    58    29    30 2   
    59    29    31 1   
    60    31    32 1   
    61    32    33 1   
    62    32   100 1   
    63    32   101 1   
    64    33    34 ar  
    65    33    38 ar  
    66    34    35 ar  
    67    34   102 1   
    68    35    36 ar  
    69    35   103 1   
    70    36    37 ar  
    71    36   104 1   
    72    37    38 ar  
    73    37   105 1   
    74    38   106 1   
    75    39    40 1   
    76    39   107 1   
    77    39   108 1   
    78    40    41 1   
    79    40   109 1   
    80    40   110 1   
    81    41    42 1   
    82    41   111 1   
    83    41   112 1   
    84    42    43 1   
    85    42   113 1   
    86    42   138 1   
    87    43    44 1   
    88    43   114 1   
    89    44    45 1   
    90    44    51 1   
    91    44    52 1   
    92    45    46 1   
    93    45   115 1   
    94    46    47 1   
    95    46   116 1   
    96    46   117 1   
    97    47    48 1   
    98    47   118 1   
    99    47   119 1   
   100    48    49 1   
   101    48    50 1   
   102    51    55 1   
   103    52    53 1   
   104    53    54 1   
   105    53    55 1   
   106    53   120 1   
   107    54    58 1   
   108    55    56 1   
   109    55   121 1   
   110    56    57 1   
   111    56    58 1   
   112    56   122 1   
   113    57   123 1   
   114    58    59 1   
   115    58   124 1   
   116    59    60 1   
   117    59   125 1   
   118    59   126 1   
   119    60    61 1   
   120    61    62 1   
   121    61    63 1   
   122    61    64 1   
   123    64    65 1   
   124    65    66 1   
   125    65    67 1   
   126    65    68 1   
   127    68    69 1   
   128    69    70 1   
   129    69   127 1   
   130    69   128 1   
   131    70    71 1   
   132    70    72 1   
   133    70   129 1   
   134    71    76 1   
   135    72    73 1   
   136    72    74 1   
   137    72   130 1   
   138    73   131 1   
   139    74    75 1   
   140    74    76 1   
   141    74   132 1   
   142    75   133 1   
   143    76    77 1   
   144    76   134 1   
   145    79   135 1   
   146    80   136 1   
   147    80   137 1   
@<TRIPOS>SUBSTRUCTURE
     1 BVT         1 TEMP              0 ****  ****    0 ROOT
