@<TRIPOS>MOLECULE
BVT
  140   147     1     0     0
SMALL
No Charge or Current Charge


@<TRIPOS>ATOM
      1 C1          49.8870    33.0310    47.7420 ca         1 BVT       0.124500
      2 C2          50.7230    33.6050    48.6670 ca         1 BVT      -0.088600
      3 C3          51.8440    32.8660    49.1010 ca         1 BVT       0.439900
      4 C4          49.1770    35.0630    48.3210 cc         1 BVT       0.447700
      5 N1          52.0910    31.6350    48.6260 nb         1 BVT      -0.328000
      6 N2          50.1030    31.7950    47.2480 nb         1 BVT      -0.205000
      7 C5          34.4830    50.5400    39.4310 ca         1 BVT      -0.134000
      8 C6          35.4800    50.2620    38.4700 ca         1 BVT      -0.095000
      9 C7          35.9200    48.9320    38.2580 ca         1 BVT      -0.145000
     10 C8          35.3700    47.8680    39.0060 ca         1 BVT      -0.059000
     11 C9          34.3860    48.1830    39.9530 ca         1 BVT      -0.096800
     12 C10         33.9580    49.4640    40.1560 ca         1 BVT      -0.049200
     13 N3          32.9810    49.4690    41.1350 na         1 BVT      -0.227700
     14 C11         32.7580    48.1560    41.6000 cc         1 BVT      -0.145100
     15 C12         33.6320    47.3580    40.8690 cd         1 BVT      -0.142400
     16 C13         33.7930    45.8670    41.0400 c3         1 BVT      -0.010200
     17 C14         35.1480    45.4520    41.6700 c3         1 BVT       0.032700
     18 C15         35.3930    46.1270    43.0530 c          1 BVT       0.588100
     19 O1          35.3300    45.5100    44.1110 o          1 BVT      -0.629100
     20 N4          35.7180    47.4660    43.0090 ns         1 BVT      -0.481900
     21 C16         35.9920    48.3050    44.1740 c3         1 BVT       0.109700
     22 C17         35.7210    49.7810    43.8320 c3         1 BVT      -0.109600
     23 C18         37.4270    48.0810    44.6950 c3         1 BVT      -0.109600
     24 N5          35.2150    43.9820    41.8250 ns         1 BVT      -0.487900
     25 C19         35.5250    43.0780    40.8310 c          1 BVT       0.600100
     26 O2          35.7450    43.4340    39.6790 o          1 BVT      -0.615100
     27 C20         35.5460    41.5840    41.2820 c3         1 BVT       0.050700
     28 N6          35.3070    40.7010    40.1210 ns         1 BVT      -0.478900
     29 C21         34.8970    39.4000    40.1960 c          1 BVT       0.639100
     30 O3          34.6400    38.8030    41.2310 o          1 BVT      -0.554000
     31 O4          34.8180    38.8850    38.9400 os         1 BVT      -0.456100
     32 C22         34.4280    37.5060    38.8200 c3         1 BVT       0.231900
     33 C23         34.3870    37.1360    37.3430 ca         1 BVT      -0.093300
     34 C24         35.5780    36.8300    36.6550 ca         1 BVT      -0.083500
     35 C25         35.5400    36.4720    35.2950 ca         1 BVT      -0.118500
     36 C26         34.3100    36.4190    34.6160 ca         1 BVT      -0.106000
     37 C27         33.1200    36.7270    35.2970 ca         1 BVT      -0.118500
     38 C28         33.1570    37.0850    36.6560 ca         1 BVT      -0.083500
     39 C29         36.8680    41.1730    41.9970 c3         1 BVT      -0.088400
     40 C30         37.2630    42.0570    43.2050 c3         1 BVT      -0.076400
     41 C31         38.3940    41.4610    44.0720 c3         1 BVT      -0.083400
     42 C32         38.8460    42.4340    45.1780 c3         1 BVT       0.185800
     43 N7          39.6680    41.7380    46.1830 n7         1 BVT      -0.853400
     44 C33         40.2480    42.5040    47.2160 c5         1 BVT       0.877400
     45 N8          39.3050    43.3840    47.8040 n7         1 BVT      -0.921400
     46 C34         39.2810    44.7960    47.3970 c3         1 BVT       0.200800
     47 C35         38.6720    45.6150    48.5430 c3         1 BVT      -0.212400
     48 C36         39.6510    45.5970    49.7220 c          1 BVT       0.717000
     49 O5          40.4740    46.4940    49.8030 o          1 BVT      -0.749500
     50 O6          39.6430    44.6180    50.4540 o          1 BVT      -0.749500
     51 O7          41.5040    43.0670    46.8680 os         1 BVT      -0.429000
     52 S1          40.4690    41.2960    48.4970 ss         1 BVT      -0.671000
     53 C37         41.8880    42.2910    49.1440 c5         1 BVT       0.316300
     54 O8          43.0340    41.4200    49.2240 os         1 BVT      -0.447000
     55 C38         42.2330    43.3980    48.0890 c5         1 BVT       0.099300
     56 C39         43.7710    43.1860    47.8900 c5         1 BVT       0.205300
     57 O9          44.2700    43.7300    46.6560 oh         1 BVT      -0.777000
     58 C40         43.8520    41.6320    48.0480 c5         1 BVT       0.074300
     59 C41         45.2580    41.0190    48.3310 c3         1 BVT       0.236600
     60 O10         46.2310    41.2200    47.2850 os         1 BVT      -0.625400
     61 P1          45.9800    40.8880    45.7290 p5         1 BVT       1.502800
     62 O11         47.2600    41.1140    44.9980 o          1 BVT      -0.831000
     63 O12         44.8490    41.7280    45.2350 o          1 BVT      -0.831000
     64 O13         45.6100    39.3760    45.9340 os         1 BVT      -0.735800
     65 P2          45.5840    38.5180    44.6150 p5         1 BVT       1.489800
     66 O14         45.4960    39.2850    43.3390 o          1 BVT      -0.851000
     67 O15         44.4950    37.5040    44.6860 o          1 BVT      -0.851000
     68 O16         47.0290    37.8230    44.7870 os         1 BVT      -0.601400
     69 C42         47.2250    36.8040    45.7830 c3         1 BVT       0.218600
     70 C43         46.7960    35.4000    45.2360 c5         1 BVT       0.140300
     71 O17         47.8880    34.4560    45.4140 os         1 BVT      -0.463000
     72 C44         45.6020    34.7210    45.9840 c5         1 BVT       0.111300
     73 O18         45.0500    33.5960    45.2790 oh         1 BVT      -0.726000
     74 C45         46.3250    34.2200    47.2680 c5         1 BVT       0.080300
     75 O19         45.5740    33.1570    47.8970 oh         1 BVT      -0.727000
     76 C46         47.7150    33.7630    46.6780 c5         1 BVT       0.310300
     77 N9          48.9010    33.9500    47.5160 na         1 BVT      -0.275300
     78 N10         50.3020    34.8850    49.0420 nd         1 BVT      -0.571100
     79 C47         51.2020    31.1580    47.7200 ca         1 BVT       0.153900
     80 N11         52.7340    33.3420    50.0120 nv         1 BVT      -1.079900
     81 H1          48.5440    35.9420    48.3400 h5         1 BVT       0.099800
     82 H4          36.6850    48.7290    37.5120 ha         1 BVT       0.109000
     83 H5          35.6960    46.8430    38.8470 ha         1 BVT       0.126000
     84 H6          32.4960    50.2980    41.4640 hn         1 BVT       0.345000
     85 H7          32.0410    47.9100    42.3790 h4         1 BVT       0.218000
     86 H8          33.6860    45.3780    40.0650 hc         1 BVT       0.059700
     87 H9          32.9800    45.4790    41.6670 hc         1 BVT       0.059700
     88 H10         35.9640    45.7730    41.0100 h1         1 BVT       0.081700
     89 H11         35.6840    47.9070    42.0970 hn         1 BVT       0.316500
     90 H12         35.2930    48.0150    44.9700 h1         1 BVT       0.059700
     91 H13         35.8920    50.4180    44.7080 hc         1 BVT       0.049700
     92 H14         36.3770    50.1240    43.0230 hc         1 BVT       0.049700
     93 H15         34.6810    49.9180    43.5130 hc         1 BVT       0.049700
     94 H16         37.6150    48.7000    45.5800 hc         1 BVT       0.049700
     95 H17         37.5790    47.0330    44.9790 hc         1 BVT       0.049700
     96 H18         38.1660    48.3420    43.9280 hc         1 BVT       0.049700
     97 H19         35.0590    43.6050    42.7550 hn         1 BVT       0.336500
     98 H20         34.7120    41.4540    41.9850 h1         1 BVT       0.071700
     99 H21         35.4680    41.0660    39.1890 hn         1 BVT       0.339500
    100 H22         33.4390    37.3420    39.2680 h1         1 BVT       0.053200
    101 H23         35.1450    36.8540    39.3380 h1         1 BVT       0.053200
    102 H24         36.5330    36.8690    37.1740 ha         1 BVT       0.117500
    103 H25         36.4620    36.2360    34.7690 ha         1 BVT       0.109000
    104 H26         34.2810    36.1400    33.5650 ha         1 BVT       0.105000
    105 H27         32.1680    36.6870    34.7720 ha         1 BVT       0.109000
    106 H28         32.2300    37.3210    37.1750 ha         1 BVT       0.117500
    107 H29         36.7720    40.1360    42.3410 hc         1 BVT       0.056700
    108 H30         37.6890    41.1860    41.2690 hc         1 BVT       0.056700
    109 H31         37.5810    43.0430    42.8420 hc         1 BVT       0.044200
    110 H32         36.3840    42.2130    43.8430 hc         1 BVT       0.044200
    111 H33         38.0340    40.5290    44.5270 hc         1 BVT       0.049200
    112 H34         39.2550    41.2050    43.4430 hc         1 BVT       0.049200
    113 H35         39.4080    43.2600    44.7190 h1         1 BVT       0.043700
    114 H36         39.0840    41.0920    46.7050 hn         1 BVT       0.455000
    115 H38         39.5170    43.3400    48.8030 hn         1 BVT       0.488000
    116 H40         38.6790    44.9270    46.4880 h1         1 BVT       0.023200
    117 H41         40.2830    45.1910    47.1890 h1         1 BVT       0.023200
    118 H42         38.5360    46.6340    48.1610 hc         1 BVT       0.016200
    119 H43         37.7270    45.1210    48.8050 hc         1 BVT       0.016200
    120 H45         41.6540    42.7180    50.1290 h2         1 BVT       0.079700
    121 H46         41.9780    44.4080    48.4340 h1         1 BVT       0.093700
    122 H47         44.3060    43.6570    48.7270 h1         1 BVT       0.029700
    123 H48         44.4260    42.9330    46.0380 ho         1 BVT       0.605000
    124 H49         43.3790    41.1090    47.2050 h1         1 BVT       0.100700
    125 H50         45.6390    41.4570    49.2620 h1         1 BVT       0.027200
    126 H51         45.1310    39.9440    48.5150 h1         1 BVT       0.027200
    127 H54         48.2870    36.7700    46.0580 h1         1 BVT       0.044200
    128 H55         46.6600    37.0380    46.6950 h1         1 BVT       0.044200
    129 H56         46.5870    35.4960    44.1620 h1         1 BVT       0.095700
    130 H57         44.8140    35.4490    46.2310 h1         1 BVT       0.117700
    131 H58         44.8930    32.9390    46.0040 ho         1 BVT       0.499000
    132 H59         46.4530    35.0590    47.9680 h1         1 BVT       0.088700
    133 H60         45.9700    32.9870    48.7870 ho         1 BVT       0.517000
    134 H61         47.6690    32.6860    46.4690 h2         1 BVT       0.096700
    135 H62         51.3910    30.1580    47.3320 h5         1 BVT       0.025100
    136 H63         53.6510    32.9040    50.0570 hn         1 BVT       0.499500
    137 H64         52.6910    34.3370    50.2230 hn         1 BVT       0.499500
    138 H37         37.9490    42.8600    45.6490 h1         1 BVT       0.043700
    139 H2          34.1350    51.5570    39.5990 ha         1 BVT       0.105000
    140 H3          35.9090    51.0740    37.8860 ha         1 BVT       0.102000
@<TRIPOS>BOND
     1     1     2 ar  
     2     1     6 ar  
     3     1    77 1   
     4     2     3 ar  
     5     2    78 1   
     6     3     5 ar  
     7     3    80 1   
     8     4    77 1   
     9     4    78 2   
    10     4    81 1   
    11     5    79 ar  
    12     6    79 ar  
    13     7     8 ar  
    14     7    12 ar  
    15     7   139 1   
    16     8     9 ar  
    17     8   140 1   
    18     9    10 ar  
    19     9    82 1   
    20    10    11 ar  
    21    10    83 1   
    22    11    12 ar  
    23    11    15 1   
    24    12    13 1   
    25    13    14 1   
    26    13    84 1   
    27    14    15 2   
    28    14    85 1   
    29    15    16 1   
    30    16    17 1   
    31    16    86 1   
    32    16    87 1   
    33    17    18 1   
    34    17    24 1   
    35    17    88 1   
    36    18    19 2   
    37    18    20 1   
    38    20    21 1   
    39    20    89 1   
    40    21    22 1   
    41    21    23 1   
    42    21    90 1   
    43    22    91 1   
    44    22    92 1   
    45    22    93 1   
    46    23    94 1   
    47    23    95 1   
    48    23    96 1   
    49    24    25 1   
    50    24    97 1   
    51    25    26 2   
    52    25    27 1   
    53    27    28 1   
    54    27    39 1   
    55    27    98 1   
    56    28    29 1   
    57    28    99 1   
    58    29    30 2   
    59    29    31 1   
    60    31    32 1   
    61    32    33 1   
    62    32   100 1   
    63    32   101 1   
    64    33    34 ar  
    65    33    38 ar  
    66    34    35 ar  
    67    34   102 1   
    68    35    36 ar  
    69    35   103 1   
    70    36    37 ar  
    71    36   104 1   
    72    37    38 ar  
    73    37   105 1   
    74    38   106 1   
    75    39    40 1   
    76    39   107 1   
    77    39   108 1   
    78    40    41 1   
    79    40   109 1   
    80    40   110 1   
    81    41    42 1   
    82    41   111 1   
    83    41   112 1   
    84    42    43 1   
    85    42   113 1   
    86    42   138 1   
    87    43    44 1   
    88    43   114 1   
    89    44    45 1   
    90    44    51 1   
    91    44    52 1   
    92    45    46 1   
    93    45   115 1   
    94    46    47 1   
    95    46   116 1   
    96    46   117 1   
    97    47    48 1   
    98    47   118 1   
    99    47   119 1   
   100    48    49 1   
   101    48    50 1   
   102    51    55 1   
   103    52    53 1   
   104    53    54 1   
   105    53    55 1   
   106    53   120 1   
   107    54    58 1   
   108    55    56 1   
   109    55   121 1   
   110    56    57 1   
   111    56    58 1   
   112    56   122 1   
   113    57   123 1   
   114    58    59 1   
   115    58   124 1   
   116    59    60 1   
   117    59   125 1   
   118    59   126 1   
   119    60    61 1   
   120    61    62 1   
   121    61    63 1   
   122    61    64 1   
   123    64    65 1   
   124    65    66 1   
   125    65    67 1   
   126    65    68 1   
   127    68    69 1   
   128    69    70 1   
   129    69   127 1   
   130    69   128 1   
   131    70    71 1   
   132    70    72 1   
   133    70   129 1   
   134    71    76 1   
   135    72    73 1   
   136    72    74 1   
   137    72   130 1   
   138    73   131 1   
   139    74    75 1   
   140    74    76 1   
   141    74   132 1   
   142    75   133 1   
   143    76    77 1   
   144    76   134 1   
   145    79   135 1   
   146    80   136 1   
   147    80   137 1   
@<TRIPOS>SUBSTRUCTURE
     1 BVT         1 TEMP              0 ****  ****    0 ROOT
