@<TRIPOS>MOLECULE
BVU
   40    44     1     0     0
SMALL
bcc


@<TRIPOS>ATOM
      1 C10         -5.2260     0.1310     0.8010 ca         1 BVU       0.164900
      2 C13         -6.9910     1.1940    -0.3900 ca         1 BVU      -0.088000
      3 C15         -4.7880     1.0770    -1.3390 ca         1 BVU      -0.073000
      4 C20          2.2380    -0.5600     0.0830 cc         1 BVU      -0.238200
      5 C21          2.4940     0.8650    -0.1520 c          1 BVU       0.625300
      6 C24          4.9500     0.2460     0.0120 ca         1 BVU      -0.126600
      7 C26          6.6190     1.9740    -0.1780 ca         1 BVU      -0.107000
      8 C28          4.2910     2.5460    -0.3330 ca         1 BVU      -0.081000
      9 C2          -2.3780    -0.9810    -0.9780 ca         1 BVU       0.191400
     10 C3          -1.0620    -1.3930    -0.9260 ca         1 BVU      -0.166000
     11 C4          -0.2550    -0.8320     0.0480 ca         1 BVU       0.048800
     12 C5          -0.7280     0.1050     0.9510 ca         1 BVU      -0.166000
     13 C6          -2.0500     0.4800     0.8410 ca         1 BVU       0.191400
     14 F7          -2.5250     1.3910     1.6900 f          1 BVU      -0.118900
     15 C8          -2.9160    -0.0380    -0.1130 cp         1 BVU      -0.104000
     16 C9          -4.3210     0.3970    -0.2160 cp         1 BVU      -0.089000
     17 F11         -4.7960    -0.5350     1.8810 f          1 BVU      -0.135900
     18 C12         -6.5510     0.5150     0.7370 ca         1 BVU      -0.171000
     19 C14         -6.1120     1.4750    -1.4280 ca         1 BVU      -0.146000
     20 N16          1.0930    -1.2620     0.1320 na         1 BVU       0.197300
     21 N17          1.3590    -2.5590     0.2850 nc         1 BVU      -0.165800
     22 N18          2.6290    -2.7190     0.3340 nd         1 BVU      -0.293000
     23 C19          3.2130    -1.5110     0.2160 cd         1 BVU       0.225800
     24 C23          3.9410     1.2130    -0.1550 ca         1 BVU      -0.137600
     25 C25          6.2810     0.6400    -0.0020 ca         1 BVU      -0.085000
     26 C27          5.6240     2.9260    -0.3440 ca         1 BVU      -0.116000
     27 C29          4.6420    -1.2010     0.1990 c          1 BVU       0.514200
     28 O30          5.4940    -2.0490     0.3220 o          1 BVU      -0.468100
     29 H131        -8.0260     1.5020    -0.4540 ha         1 BVU       0.138000
     30 H151        -4.0990     1.3030    -2.1430 ha         1 BVU       0.141000
     31 H261         7.6600     2.2670    -0.1880 ha         1 BVU       0.143000
     32 H281         3.5180     3.2920    -0.4620 ha         1 BVU       0.156000
     33 H031        -0.6810    -2.1220    -1.6280 ha         1 BVU       0.176000
     34 H051        -0.0980     0.5270     1.7220 ha         1 BVU       0.176000
     35 H121        -7.2240     0.2830     1.5510 ha         1 BVU       0.154000
     36 H141        -6.4570     2.0050    -2.3050 ha         1 BVU       0.141000
     37 H251         7.0600    -0.1000     0.1240 ha         1 BVU       0.160000
     38 H271         5.8840     3.9670    -0.4830 ha         1 BVU       0.143000
     39 O22          1.6120     1.6690    -0.3380 o          1 BVU      -0.491100
     40 F1          -3.1740    -1.5120    -1.9050 f          1 BVU      -0.118900
@<TRIPOS>BOND
     1     1    16 ar  
     2     1    17 1   
     3     1    18 ar  
     4     2    18 ar  
     5     2    19 ar  
     6     2    29 1   
     7     3    16 ar  
     8     3    19 ar  
     9     3    30 1   
    10     4     5 1   
    11     4    20 1   
    12     4    23 2   
    13     5    24 1   
    14     5    39 2   
    15     6    24 ar  
    16     6    25 ar  
    17     6    27 1   
    18     7    25 ar  
    19     7    26 ar  
    20     7    31 1   
    21     8    24 ar  
    22     8    26 ar  
    23     8    32 1   
    24     9    10 ar  
    25     9    15 ar  
    26     9    40 1   
    27    10    11 ar  
    28    10    33 1   
    29    11    12 ar  
    30    11    20 1   
    31    12    13 ar  
    32    12    34 1   
    33    13    14 1   
    34    13    15 ar  
    35    15    16 1   
    36    18    35 1   
    37    19    36 1   
    38    20    21 1   
    39    21    22 2   
    40    22    23 1   
    41    23    27 1   
    42    25    37 1   
    43    26    38 1   
    44    27    28 2   
@<TRIPOS>SUBSTRUCTURE
     1 BVU         1 TEMP              0 ****  ****    0 ROOT
