@<TRIPOS>MOLECULE
BVU
   40    44     1     0     0
SMALL
No Charge or Current Charge


@<TRIPOS>ATOM
      1 C10         -5.2450     0.1630     0.8320 ca         1 BVU       0.200000
      2 C13         -6.9720     1.3520    -0.4050 ca         1 BVU      -0.070000
      3 C15         -4.7300     1.1370    -1.3350 ca         1 BVU      -0.055000
      4 C20          2.2340    -0.6790     0.0680 cc         1 BVU      -0.223600
      5 C21          2.4420     0.7490    -0.2020 c          1 BVU       0.625300
      6 C24          4.9540     0.2840     0.0230 ca         1 BVU      -0.126600
      7 C26          6.5670     2.1080    -0.2230 ca         1 BVU      -0.089000
      8 C28          4.1900     2.5640    -0.4380 ca         1 BVU      -0.063000
      9 C2          -2.3510    -0.9540    -1.0750 ca         1 BVU       0.226500
     10 C3          -1.0280    -1.4140    -0.9910 ca         1 BVU      -0.148000
     11 C4          -0.1990    -1.0040     0.0680 ca         1 BVU       0.048800
     12 C5          -0.7150    -0.1320     1.0460 ca         1 BVU      -0.148000
     13 C6          -2.0380     0.3260     0.9590 ca         1 BVU       0.226500
     14 F7          -2.4860     1.1850     1.9020 f          1 BVU      -0.154000
     15 C8          -2.8880    -0.0760    -0.1020 cp         1 BVU      -0.104000
     16 C9          -4.3000     0.4120    -0.1970 cp         1 BVU      -0.089000
     17 F11         -4.8940    -0.5520     1.9250 f          1 BVU      -0.171000
     18 C12         -6.5660     0.6290     0.7290 ca         1 BVU      -0.153000
     19 C14         -6.0530     1.6040    -1.4370 ca         1 BVU      -0.128000
     20 N16          1.1180    -1.4610     0.1510 na         1 BVU       0.248000
     21 N17          1.3800    -2.7650     0.4140 nc         1 BVU      -0.165800
     22 N18          2.6860    -2.8430     0.4850 nd         1 BVU      -0.293000
     23 C19          3.2400    -1.5820     0.2810 cd         1 BVU       0.160500
     24 C23          3.8890     1.2020    -0.2040 ca         1 BVU      -0.137600
     25 C25          6.2870     0.7530     0.0100 ca         1 BVU      -0.067000
     26 C27          5.5200     3.0130    -0.4470 ca         1 BVU      -0.098000
     27 C29          4.6760    -1.1830     0.2760 c          1 BVU       0.514200
     28 O30          5.5850    -1.9860     0.4650 o          1 BVU      -0.468100
     29 H131        -7.9950     1.7130    -0.4860 ha         1 BVU       0.120000
     30 H151        -4.0290     1.3430    -2.1400 ha         1 BVU       0.123000
     31 H261         7.5980     2.4570    -0.2300 ha         1 BVU       0.125000
     32 H281         3.3920     3.2830    -0.6150 ha         1 BVU       0.138000
     33 H031        -0.6490    -2.0900    -1.7540 ha         1 BVU       0.158000
     34 H051        -0.0900     0.1980     1.8720 ha         1 BVU       0.158000
     35 H121        -7.2750     0.4240     1.5280 ha         1 BVU       0.136000
     36 H141        -6.3640     2.1620    -2.3170 ha         1 BVU       0.123000
     37 H251         7.1150     0.0670     0.1820 ha         1 BVU       0.142000
     38 H271         5.7380     4.0630    -0.6280 ha         1 BVU       0.125000
     39 O22          1.5190     1.5240    -0.4140 o          1 BVU      -0.491100
     40 F1          -3.1180    -1.3790    -2.1050 f          1 BVU      -0.154000
@<TRIPOS>BOND
     1     1    16 ar  
     2     1    17 1   
     3     1    18 ar  
     4     2    18 ar  
     5     2    19 ar  
     6     2    29 1   
     7     3    16 ar  
     8     3    19 ar  
     9     3    30 1   
    10     4     5 1   
    11     4    20 1   
    12     4    23 2   
    13     5    24 1   
    14     5    39 2   
    15     6    24 ar  
    16     6    25 ar  
    17     6    27 1   
    18     7    25 ar  
    19     7    26 ar  
    20     7    31 1   
    21     8    24 ar  
    22     8    26 ar  
    23     8    32 1   
    24     9    10 ar  
    25     9    15 ar  
    26     9    40 1   
    27    10    11 ar  
    28    10    33 1   
    29    11    12 ar  
    30    11    20 1   
    31    12    13 ar  
    32    12    34 1   
    33    13    14 1   
    34    13    15 ar  
    35    15    16 1   
    36    18    35 1   
    37    19    36 1   
    38    20    21 1   
    39    21    22 2   
    40    22    23 1   
    41    23    27 1   
    42    25    37 1   
    43    26    38 1   
    44    27    28 2   
@<TRIPOS>SUBSTRUCTURE
     1 BVU         1 TEMP              0 ****  ****    0 ROOT
