@<TRIPOS>MOLECULE
BVV
   50    53     1     0     0
SMALL
abcg2


@<TRIPOS>ATOM
      1 C1          -6.5500    -1.3110     1.0290 ca         1 BVV      -0.060000
      2 C2          -5.1680    -1.2280     1.0750 ca         1 BVV      -0.083000
      3 C3          -5.1730     0.1590    -0.8840 ca         1 BVV      -0.083000
      4 C4          -6.5540     0.0980    -0.9280 ca         1 BVV      -0.060000
      5 C5          -7.2480    -0.6440     0.0270 ca         1 BVV      -0.255900
      6 C6          -8.7160    -0.7180    -0.0200 ce         1 BVV       0.521400
      7 N1          -9.3080    -1.8510     0.2710 nv         1 BVV      -0.566700
      8 N2          -9.4010     0.3480    -0.3520 nv         1 BVV      -0.550800
      9 N3          -0.3960     0.1740     0.0640 nb         1 BVV      -0.768000
     10 O1          -2.5670     0.8930     0.0380 os         1 BVV      -0.457300
     11 C7          -4.4660    -0.5020     0.1190 ca         1 BVV      -0.022300
     12 C8          -2.9670    -0.4650     0.1550 c3         1 BVV       0.203900
     13 C9          -1.2600     1.1600    -0.0280 ca         1 BVV       0.617300
     14 C10         -0.9100     2.5210    -0.1920 ca         1 BVV      -0.193000
     15 C11          0.4160     2.8770    -0.2620 ca         1 BVV       0.035000
     16 C12          0.8730     0.5470    -0.0090 ca         1 BVV       0.328000
     17 C13          1.3580     1.8500    -0.1680 ca         1 BVV      -0.141000
     18 C14          3.0650     0.5850    -0.0620 cc         1 BVV       0.122500
     19 C15          4.4430     0.1100    -0.0350 cd         1 BVV       0.062000
     20 N5           1.9800    -0.2390     0.0560 na         1 BVV      -0.270900
     21 C16          5.4810     1.0360    -0.1670 cd         1 BVV      -0.153000
     22 C18          6.7970     0.6230    -0.1470 cc         1 BVV      -0.124500
     23 C20          7.1030    -0.7280     0.0190 cc         1 BVV      -0.176000
     24 C19          6.0750    -1.6570     0.1540 cc         1 BVV      -0.124500
     25 C17          4.7570    -1.2400     0.1210 cd         1 BVV      -0.153000
     26 C21          8.5060    -1.1690     0.0540 c2         1 BVV       0.508000
     27 N6           9.3770    -0.5910    -0.7360 nv         1 BVV      -0.914000
     28 N7           8.8520    -2.1280     0.8760 nv         1 BVV      -0.914000
     29 N4           2.7240     1.8410    -0.1970 nc         1 BVV      -0.228600
     30 H1          -7.0740    -1.8650     1.7960 ha         1 BVV       0.131000
     31 H2          -4.6340    -1.7280     1.8730 ha         1 BVV       0.148500
     32 H3          -4.6470     0.7190    -1.6460 ha         1 BVV       0.148500
     33 H4          -7.0820     0.6010    -1.7280 ha         1 BVV       0.131000
     34 H6          -8.7740    -2.6950     0.4020 hn         1 BVV       0.380250
     35 H5         -10.3130    -1.9380     0.3030 hn         1 BVV       0.380250
     36 H8          -8.9470     1.2430    -0.4480 hn         1 BVV       0.380250
     37 H10         -2.5570    -1.0540    -0.6710 h1         1 BVV       0.073700
     38 H9          -2.5940    -0.9030     1.0840 h1         1 BVV       0.073700
     39 H11         -1.6930     3.2640    -0.2590 ha         1 BVV       0.150000
     40 H12          0.7110     3.9110    -0.3880 ha         1 BVV       0.153000
     41 H13          1.9790    -1.2410     0.1620 hn         1 BVV       0.371000
     42 H14          5.2520     2.0860    -0.2810 ha         1 BVV       0.220000
     43 H16          7.5830     1.3610    -0.2330 ha         1 BVV       0.199500
     44 H17          6.2890    -2.7120     0.2600 ha         1 BVV       0.199500
     45 H15          3.9850    -1.9920     0.2140 ha         1 BVV       0.220000
     46 H18          9.0770     0.0480    -1.4550 hn         1 BVV       0.540000
     47 H21          8.2060    -2.4750     1.5660 hn         1 BVV       0.540000
     48 H20          9.7880    -2.5060     0.8980 hn         1 BVV       0.540000
     49 H7         -10.4060     0.3350    -0.4410 hn         1 BVV       0.380250
     50 H19         10.3590    -0.8210    -0.7120 hn         1 BVV       0.540000
@<TRIPOS>BOND
     1     1     2 ar  
     2     1     5 ar  
     3     1    30 1   
     4     2    11 ar  
     5     2    31 1   
     6     3     4 ar  
     7     3    11 ar  
     8     3    32 1   
     9     4     5 ar  
    10     4    33 1   
    11     5     6 1   
    12     6     7 2   
    13     6     8 1   
    14     7    34 1   
    15     7    35 1   
    16     8    36 1   
    17     8    49 1   
    18     9    13 ar  
    19     9    16 ar  
    20    10    12 1   
    21    10    13 1   
    22    11    12 1   
    23    12    37 1   
    24    12    38 1   
    25    13    14 ar  
    26    14    15 ar  
    27    14    39 1   
    28    15    17 ar  
    29    15    40 1   
    30    16    17 ar  
    31    16    20 2   
    32    17    29 2   
    33    18    19 2   
    34    18    20 1   
    35    18    29 1   
    36    19    21 1   
    37    19    25 1   
    38    20    41 1   
    39    21    22 2   
    40    21    42 1   
    41    22    23 1   
    42    22    43 1   
    43    23    24 1   
    44    23    26 2   
    45    24    25 2   
    46    24    44 1   
    47    25    45 1   
    48    26    27 1   
    49    26    28 1   
    50    27    46 1   
    51    27    50 1   
    52    28    47 1   
    53    28    48 1   
@<TRIPOS>SUBSTRUCTURE
     1 BVV         1 TEMP              0 ****  ****    0 ROOT
