@<TRIPOS>MOLECULE
BVV
   50    53     1     0     0
SMALL
No Charge or Current Charge


@<TRIPOS>ATOM
      1 C1          -6.6360    -0.6540     1.2140 ca         1 BVV      -0.060000
      2 C2          -5.2310    -0.6300     1.2080 ca         1 BVV      -0.083000
      3 C3          -5.2390    -0.5630    -1.2190 ca         1 BVV      -0.083000
      4 C4          -6.6440    -0.5860    -1.2170 ca         1 BVV      -0.060000
      5 C5          -7.3610    -0.6330     0.0010 ca         1 BVV      -0.255900
      6 C6          -8.8500    -0.6570     0.0050 ce         1 BVV       0.521400
      7 N1          -9.5100    -1.3790     0.9620 nv         1 BVV      -0.566700
      8 N2          -9.5400     0.0430    -0.9470 nv         1 BVV      -0.550800
      9 N3          -0.3030     0.1380     0.0010 nb         1 BVV      -0.768000
     10 O1          -2.5650     0.8100     0.0300 os         1 BVV      -0.457300
     11 C7          -4.5230    -0.5870    -0.0070 ca         1 BVV      -0.022300
     12 C8          -3.0000    -0.5620    -0.0120 c3         1 BVV       0.203900
     13 C9          -1.2280     1.1290     0.0350 ca         1 BVV       0.617300
     14 C10         -0.8870     2.4950     0.0770 ca         1 BVV      -0.193000
     15 C11          0.4650     2.8770     0.0840 ca         1 BVV       0.035000
     16 C12          0.9870     0.5080     0.0080 ca         1 BVV       0.328000
     17 C13          1.4040     1.8410     0.0490 ca         1 BVV      -0.141000
     18 C14          3.1820     0.6220     0.0040 cc         1 BVV       0.122500
     19 C15          4.4930     0.1350    -0.0150 cd         1 BVV       0.062000
     20 N5           2.1200    -0.2720    -0.0200 na         1 BVV      -0.270900
     21 C16          5.5630     1.1010     0.0110 cd         1 BVV      -0.153000
     22 C18          6.8690     0.6560    -0.0060 cc         1 BVV      -0.124500
     23 C20          7.1860    -0.7550    -0.0440 cc         1 BVV      -0.176000
     24 C19          6.0910    -1.6980    -0.0790 cc         1 BVV      -0.124500
     25 C17          4.7730    -1.2830    -0.0630 cd         1 BVV      -0.153000
     26 C21          8.4840    -1.1860    -0.0590 c2         1 BVV       0.508000
     27 N6           9.5910    -0.4240    -0.0380 nv         1 BVV      -0.914000
     28 N7           8.9130    -2.4560    -0.0810 nv         1 BVV      -0.914000
     29 N4           2.7840     1.9300     0.0470 nc         1 BVV      -0.228600
     30 H1          -7.1560    -0.6740     2.1710 ha         1 BVV       0.131000
     31 H2          -4.6900    -0.6400     2.1520 ha         1 BVV       0.148500
     32 H3          -4.7040    -0.5270    -2.1660 ha         1 BVV       0.148500
     33 H4          -7.1690    -0.5800    -2.1710 ha         1 BVV       0.131000
     34 H6          -8.9700    -2.0470     1.4950 hn         1 BVV       0.380250
     35 H5         -10.4930    -1.5730     0.8300 hn         1 BVV       0.380250
     36 H8          -9.0270     0.7280    -1.4840 hn         1 BVV       0.380250
     37 H10         -2.6290    -1.0630    -0.9160 h1         1 BVV       0.073700
     38 H9          -2.6230    -1.1180     0.8570 h1         1 BVV       0.073700
     39 H11         -1.6730     3.2420     0.1030 ha         1 BVV       0.150000
     40 H12          0.7670     3.9220     0.1160 ha         1 BVV       0.153000
     41 H13          2.1420    -1.2790    -0.0510 hn         1 BVV       0.371000
     42 H14          5.3590     2.1680     0.0420 ha         1 BVV       0.220000
     43 H16          7.6680     1.3940     0.0060 ha         1 BVV       0.199500
     44 H17          6.2980    -2.7650    -0.1300 ha         1 BVV       0.199500
     45 H15          3.9910    -2.0350    -0.0910 ha         1 BVV       0.220000
     46 H18          9.5450     0.3280     0.6430 hn         1 BVV       0.540000
     47 H21          8.3880    -3.0820     0.5170 hn         1 BVV       0.540000
     48 H20          9.9120    -2.5180     0.0740 hn         1 BVV       0.540000
     49 H7         -10.5280     0.2030    -0.8090 hn         1 BVV       0.380250
     50 H19          9.8350    -0.0530    -0.9520 hn         1 BVV       0.540000
@<TRIPOS>BOND
     1     1     2 ar  
     2     1     5 ar  
     3     1    30 1   
     4     2    11 ar  
     5     2    31 1   
     6     3     4 ar  
     7     3    11 ar  
     8     3    32 1   
     9     4     5 ar  
    10     4    33 1   
    11     5     6 1   
    12     6     7 2   
    13     6     8 1   
    14     7    34 1   
    15     7    35 1   
    16     8    36 1   
    17     8    49 1   
    18     9    13 ar  
    19     9    16 ar  
    20    10    12 1   
    21    10    13 1   
    22    11    12 1   
    23    12    37 1   
    24    12    38 1   
    25    13    14 ar  
    26    14    15 ar  
    27    14    39 1   
    28    15    17 ar  
    29    15    40 1   
    30    16    17 ar  
    31    16    20 2   
    32    17    29 2   
    33    18    19 2   
    34    18    20 1   
    35    18    29 1   
    36    19    21 1   
    37    19    25 1   
    38    20    41 1   
    39    21    22 2   
    40    21    42 1   
    41    22    23 1   
    42    22    43 1   
    43    23    24 1   
    44    23    26 2   
    45    24    25 2   
    46    24    44 1   
    47    25    45 1   
    48    26    27 1   
    49    26    28 1   
    50    27    46 1   
    51    27    50 1   
    52    28    47 1   
    53    28    48 1   
@<TRIPOS>SUBSTRUCTURE
     1 BVV         1 TEMP              0 ****  ****    0 ROOT
