@<TRIPOS>MOLECULE
BVX
   77    80     1     0     0
SMALL
No Charge or Current Charge


@<TRIPOS>ATOM
      1 CHA        -17.7570     6.6520    29.2330 ce         1 BVX       0.098800
      2 NA         -18.5780     6.9440    26.9640 nd         1 BVX      -0.620300
      3 C1A        -17.6770     6.4040    27.8730 cd         1 BVX      -0.018400
      4 C2A        -16.6780     5.5750    27.2560 cd         1 BVX      -0.004200
      5 C3A        -16.9910     5.6190    25.9250 cc         1 BVX      -0.301800
      6 C4A        -18.1450     6.4520    25.8140 cc         1 BVX       0.422900
      7 CMA        -16.2740     4.9640    24.7700 c3         1 BVX      -0.010900
      8 CAA        -15.5510     4.7980    27.9070 c3         1 BVX      -0.017200
      9 CBA        -14.2090     5.5690    27.9950 c3         1 BVX      -0.200400
     10 CGA        -14.3230     6.7960    28.9140 c          1 BVX       0.708000
     11 O1A        -14.2070     6.6210    30.1170 o          1 BVX      -0.736500
     12 O2A        -14.5650     7.8810    28.4100 o          1 BVX      -0.736500
     13 CHB        -18.8370     6.7820    24.5790 ce         1 BVX      -0.186600
     14 NB         -19.1950     4.6670    23.3740 ns         1 BVX      -0.409100
     15 C1B        -19.3060     6.0180    23.5360 cd         1 BVX      -0.007400
     16 C2B        -20.0640     6.5010    22.4100 cd         1 BVX      -0.008200
     17 C3B        -20.3530     5.3950    21.6220 cc         1 BVX      -0.193200
     18 C4B        -19.7890     4.1850    22.2570 c          1 BVX       0.564200
     19 CMB        -20.4600     7.9340    22.1480 c3         1 BVX      -0.055900
     20 OB         -19.8300     3.0150    21.9060 o          1 BVX      -0.567000
     21 CAB        -21.1220     5.3540    20.3780 ce         1 BVX      -0.142000
     22 CBB        -20.7530     4.6800    19.2690 c2         1 BVX      -0.322000
     23 NC         -21.8500     9.8980    27.6450 ns         1 BVX      -0.407100
     24 C1C        -22.6370    10.4560    26.6930 c          1 BVX       0.555200
     25 C2C        -23.8090    10.9040    27.4570 cc         1 BVX      -0.219400
     26 C3C        -23.6560    10.5930    28.7990 cd         1 BVX      -0.027200
     27 C4C        -22.3730     9.9390    28.9140 cd         1 BVX      -0.029400
     28 CAC        -24.6420    10.8760    29.9090 c3         1 BVX      -0.030200
     29 CBC        -24.2730    12.1360    30.7150 c3         1 BVX      -0.085100
     30 ND         -19.8350     8.0390    29.4280 na         1 BVX      -0.076000
     31 C1D        -20.6170     8.6850    30.3810 cc         1 BVX      -0.150800
     32 C2D        -19.9950     8.4490    31.5860 cd         1 BVX      -0.110300
     33 C3D        -18.8400     7.6460    31.3560 cd         1 BVX       0.004700
     34 C4D        -18.7440     7.4070    30.0080 cc         1 BVX      -0.186800
     35 CGD        -19.3940     5.4510    33.5320 c          1 BVX       0.714000
     36 O1D        -19.4280     5.6370    34.7380 o          1 BVX      -0.754000
     37 O2D        -20.3620     5.0960    32.8780 o          1 BVX      -0.754000
     38 H1         -16.9780     6.1890    29.8350 ha         1 BVX       0.268000
     39 H4         -15.1950     4.9150    24.9540 hc         1 BVX       0.026033
     40 H5         -16.6330     3.9400    24.6170 hc         1 BVX       0.026033
     41 H6         -16.4190     5.5220    23.8380 hc         1 BVX       0.026033
     42 H7         -15.8430     4.4610    28.9080 hc         1 BVX       0.040700
     43 H8         -15.3780     3.8770    27.3370 hc         1 BVX       0.040700
     44 H9         -13.5060     4.8460    28.4280 hc         1 BVX       0.019200
     45 H10        -13.9490     5.8690    26.9720 hc         1 BVX       0.019200
     46 H12        -19.1380     7.8260    24.5480 ha         1 BVX       0.196000
     47 H13        -18.7320     4.0360    24.0160 hn         1 BVX       0.353500
     48 H14        -19.5910     8.5990    22.2140 hc         1 BVX       0.055367
     49 H15        -20.8920     8.0590    21.1490 hc         1 BVX       0.055367
     50 H16        -21.2030     8.2740    22.8790 hc         1 BVX       0.055367
     51 H17        -22.0070     5.9940    20.3570 ha         1 BVX       0.156000
     52 H18        -21.3450     4.7220    18.3540 ha         1 BVX       0.165000
     53 H19        -19.8500     4.0690    19.2410 ha         1 BVX       0.165000
     54 H20        -20.9370     9.5500    27.3900 hn         1 BVX       0.351500
     55 H21        -25.4020    12.3610    27.3960 hc         1 BVX       0.036033
     56 H22        -24.6160    12.0940    25.8350 hc         1 BVX       0.036033
     57 H23        -25.7320    10.8770    26.4830 hc         1 BVX       0.036033
     58 H24        -25.6490    11.0050    29.4960 hc         1 BVX       0.049700
     59 H25        -24.7060    10.0180    30.5890 hc         1 BVX       0.049700
     60 H26        -25.0090    12.3120    31.5090 hc         1 BVX       0.034700
     61 H27        -23.2860    12.0280    31.1790 hc         1 BVX       0.034700
     62 H28        -24.2530    13.0170    30.0630 hc         1 BVX       0.034700
     63 H29        -22.4310     9.6540    30.9660 ha         1 BVX       0.193000
     64 H30        -20.0330     7.9880    28.4340 hn         1 BVX       0.387000
     65 H31        -20.8910     8.1460    33.5290 hc         1 BVX       0.038367
     66 H32        -19.6030     9.3630    33.5100 hc         1 BVX       0.038367
     67 H33        -21.1860     9.7540    32.8550 hc         1 BVX       0.038367
     68 H34        -16.8440     7.2940    32.0440 hc         1 BVX       0.053700
     69 H35        -17.9330     7.7740    33.3150 hc         1 BVX       0.053700
     70 H36        -18.0220     5.0910    31.8740 hc         1 BVX       0.033200
     71 H37        -17.2260     5.4560    33.4860 hc         1 BVX       0.033200
     72 CMD        -20.4440     8.9530    32.9390 c3         1 BVX      -0.012800
     73 CHD        -21.8270     9.4530    30.0830 ce         1 BVX      -0.087200
     74 CMC        -24.9500    11.5960    26.7530 c3         1 BVX      -0.016900
     75 CAD        -17.8690     7.1580    32.4110 c3         1 BVX      -0.014100
     76 OC         -22.3880    10.5470    25.5000 o          1 BVX      -0.569000
     77 CBD        -18.0570     5.6700    32.8040 c3         1 BVX      -0.197400
@<TRIPOS>BOND
     1     1     3 2   
     2     1    34 1   
     3     1    38 1   
     4     2     3 1   
     5     2     6 2   
     6     3     4 1   
     7     4     5 2   
     8     4     8 1   
     9     5     6 1   
    10     5     7 1   
    11     6    13 1   
    12     7    39 1   
    13     7    40 1   
    14     7    41 1   
    15     8     9 1   
    16     8    42 1   
    17     8    43 1   
    18     9    10 1   
    19     9    44 1   
    20     9    45 1   
    21    10    11 1   
    22    10    12 1   
    23    13    15 2   
    24    13    46 1   
    25    14    15 1   
    26    14    18 1   
    27    14    47 1   
    28    15    16 1   
    29    16    17 2   
    30    16    19 1   
    31    17    18 1   
    32    17    21 1   
    33    18    20 2   
    34    19    48 1   
    35    19    49 1   
    36    19    50 1   
    37    21    22 2   
    38    21    51 1   
    39    22    52 1   
    40    22    53 1   
    41    23    24 1   
    42    23    27 1   
    43    23    54 1   
    44    24    25 1   
    45    24    76 2   
    46    25    26 2   
    47    25    74 1   
    48    26    27 1   
    49    26    28 1   
    50    27    73 2   
    51    28    29 1   
    52    28    58 1   
    53    28    59 1   
    54    29    60 1   
    55    29    61 1   
    56    29    62 1   
    57    30    31 1   
    58    30    34 1   
    59    30    64 1   
    60    31    32 2   
    61    31    73 1   
    62    32    33 1   
    63    32    72 1   
    64    33    34 2   
    65    33    75 1   
    66    35    36 1   
    67    35    37 1   
    68    35    77 1   
    69    55    74 1   
    70    56    74 1   
    71    57    74 1   
    72    63    73 1   
    73    65    72 1   
    74    66    72 1   
    75    67    72 1   
    76    68    75 1   
    77    69    75 1   
    78    70    77 1   
    79    71    77 1   
    80    75    77 1   
@<TRIPOS>SUBSTRUCTURE
     1 BVX         1 TEMP              0 ****  ****    0 ROOT
