@<TRIPOS>MOLECULE
BVX
   77    80     1     0     0
SMALL
bcc


@<TRIPOS>ATOM
      1 CHA        -17.7520     6.5890    29.3570 ce         1 BVX       0.148800
      2 NA         -18.6540     6.9430    27.1480 nd         1 BVX      -0.620300
      3 C1A        -17.7090     6.4070    27.9950 cd         1 BVX      -0.018400
      4 C2A        -16.7230     5.6700    27.2410 cd         1 BVX      -0.004200
      5 C3A        -17.0990     5.7800    25.9280 cc         1 BVX      -0.301800
      6 C4A        -18.3230     6.5590    25.9330 cc         1 BVX       0.422900
      7 CMA        -16.3300     5.3030    24.7380 c3         1 BVX      -0.010900
      8 CAA        -15.5210     4.9550    27.7670 c3         1 BVX      -0.017200
      9 CBA        -14.3180     5.8600    28.0640 c3         1 BVX      -0.200400
     10 CGA        -14.3520     6.5800    29.4270 c          1 BVX       0.918600
     11 O1A        -14.7380     5.9030    30.4080 o          1 BVX      -0.841800
     12 O2A        -13.9510     7.7580    29.4540 o          1 BVX      -0.841800
     13 CHB        -19.1470     6.9710    24.8140 ce         1 BVX      -0.136600
     14 NB         -19.1990     4.9040    23.5070 ns         1 BVX      -0.476100
     15 C1B        -19.4990     6.2320    23.7460 cd         1 BVX      -0.007400
     16 C2B        -20.3290     6.6720    22.6280 cd         1 BVX      -0.008200
     17 C3B        -20.5060     5.6230    21.7860 cc         1 BVX      -0.193200
     18 C4B        -19.7980     4.4500    22.3630 c          1 BVX       0.706700
     19 CMB        -20.8340     8.0630    22.5030 c3         1 BVX      -0.055900
     20 OB         -19.7410     3.3090    21.9500 o          1 BVX      -0.642500
     21 CAB        -21.2530     5.6200    20.5450 ce         1 BVX      -0.092000
     22 CBB        -21.4510     4.5830    19.7270 c2         1 BVX      -0.222000
     23 NC         -21.4930     9.6290    27.5590 ns         1 BVX      -0.474100
     24 C1C        -22.2350    10.1850    26.5450 c          1 BVX       0.697700
     25 C2C        -23.4950    10.6410    27.1630 cc         1 BVX      -0.219400
     26 C3C        -23.4310    10.3890    28.4870 cd         1 BVX      -0.027200
     27 C4C        -22.1510     9.7390    28.7720 cd         1 BVX      -0.029400
     28 CAC        -24.4430    10.7190    29.5310 c3         1 BVX      -0.030200
     29 CBC        -24.1110    12.0220    30.2610 c3         1 BVX      -0.085100
     30 ND         -19.7770     7.9270    29.4170 na         1 BVX      -0.127100
     31 C1D        -20.5500     8.5780    30.3100 cc         1 BVX      -0.100100
     32 C2D        -19.9800     8.3980    31.5870 cd         1 BVX      -0.110300
     33 C3D        -18.8330     7.6170    31.4240 cd         1 BVX       0.004700
     34 C4D        -18.7260     7.3280    30.0490 cc         1 BVX      -0.136100
     35 CGD        -19.3070     5.2590    33.4730 c          1 BVX       0.924600
     36 O1D        -19.7640     6.0530    34.3210 o          1 BVX      -0.859300
     37 O2D        -19.7880     4.1530    33.1530 o          1 BVX      -0.859300
     38 H1         -16.9570     6.1490    29.9480 ha         1 BVX       0.218000
     39 H4         -15.2590     5.4280    24.8980 hc         1 BVX       0.026033
     40 H5         -16.4920     4.2450    24.5200 hc         1 BVX       0.026033
     41 H6         -16.5900     5.8650    23.8410 hc         1 BVX       0.026033
     42 H7         -15.7760     4.4060    28.6760 hc         1 BVX       0.040700
     43 H8         -15.2280     4.2000    27.0340 hc         1 BVX       0.040700
     44 H9         -13.4200     5.2310    28.0640 hc         1 BVX       0.019200
     45 H10        -14.1830     6.5800    27.2540 hc         1 BVX       0.019200
     46 H12        -19.5890     7.9580    24.8930 ha         1 BVX       0.146000
     47 H13        -18.7580     4.2870    24.1710 hn         1 BVX       0.353500
     48 H14        -20.0090     8.7700    22.3990 hc         1 BVX       0.055367
     49 H15        -21.4850     8.1840    21.6400 hc         1 BVX       0.055367
     50 H16        -21.3980     8.3580    23.3880 hc         1 BVX       0.055367
     51 H17        -21.6940     6.5720    20.2680 ha         1 BVX       0.106000
     52 H18        -22.0350     4.7130    18.8250 ha         1 BVX       0.115000
     53 H19        -21.0550     3.5970    19.9160 ha         1 BVX       0.115000
     54 H20        -20.5140     9.4230    27.4350 hn         1 BVX       0.351500
     55 H21        -25.4630    11.4620    26.9510 hc         1 BVX       0.036033
     56 H22        -24.2380    12.2400    25.9570 hc         1 BVX       0.036033
     57 H23        -24.8480    10.6580    25.5080 hc         1 BVX       0.036033
     58 H24        -25.4270    10.8050    29.0670 hc         1 BVX       0.049700
     59 H25        -24.5210     9.9030    30.2520 hc         1 BVX       0.049700
     60 H26        -24.8700    12.2430    31.0110 hc         1 BVX       0.034700
     61 H27        -23.1480    11.9630    30.7680 hc         1 BVX       0.034700
     62 H28        -24.0710    12.8600    29.5650 hc         1 BVX       0.034700
     63 H29        -22.3720     9.5550    30.8240 ha         1 BVX       0.143000
     64 H30        -19.9160     7.7650    28.4230 hn         1 BVX       0.336700
     65 H31        -21.4150     8.4290    33.1860 hc         1 BVX       0.038367
     66 H32        -19.8040     8.9280    33.6550 hc         1 BVX       0.038367
     67 H33        -20.8220    10.0170    32.7200 hc         1 BVX       0.038367
     68 H34        -16.8450     7.3500    32.1080 hc         1 BVX       0.053700
     69 H35        -17.9860     7.7360    33.3730 hc         1 BVX       0.053700
     70 H36        -17.8380     5.0710    31.8820 hc         1 BVX       0.033200
     71 H37        -17.1640     5.3940    33.4620 hc         1 BVX       0.033200
     72 CMD        -20.5320     8.9740    32.8490 c3         1 BVX      -0.012800
     73 CHD        -21.7340     9.3120    29.9850 ce         1 BVX      -0.037200
     74 CMC        -24.5680    11.2800    26.3600 c3         1 BVX      -0.016900
     75 CAD        -17.8610     7.1530    32.4610 c3         1 BVX      -0.014100
     76 OC         -21.8890    10.2750    25.3820 o          1 BVX      -0.644500
     77 CBD        -17.9870     5.6630    32.7880 c3         1 BVX      -0.197400
@<TRIPOS>BOND
     1     1     3 2   
     2     1    34 1   
     3     1    38 1   
     4     2     3 1   
     5     2     6 2   
     6     3     4 1   
     7     4     5 2   
     8     4     8 1   
     9     5     6 1   
    10     5     7 1   
    11     6    13 1   
    12     7    39 1   
    13     7    40 1   
    14     7    41 1   
    15     8     9 1   
    16     8    42 1   
    17     8    43 1   
    18     9    10 1   
    19     9    44 1   
    20     9    45 1   
    21    10    11 1   
    22    10    12 1   
    23    13    15 2   
    24    13    46 1   
    25    14    15 1   
    26    14    18 1   
    27    14    47 1   
    28    15    16 1   
    29    16    17 2   
    30    16    19 1   
    31    17    18 1   
    32    17    21 1   
    33    18    20 2   
    34    19    48 1   
    35    19    49 1   
    36    19    50 1   
    37    21    22 2   
    38    21    51 1   
    39    22    52 1   
    40    22    53 1   
    41    23    24 1   
    42    23    27 1   
    43    23    54 1   
    44    24    25 1   
    45    24    76 2   
    46    25    26 2   
    47    25    74 1   
    48    26    27 1   
    49    26    28 1   
    50    27    73 2   
    51    28    29 1   
    52    28    58 1   
    53    28    59 1   
    54    29    60 1   
    55    29    61 1   
    56    29    62 1   
    57    30    31 1   
    58    30    34 1   
    59    30    64 1   
    60    31    32 2   
    61    31    73 1   
    62    32    33 1   
    63    32    72 1   
    64    33    34 2   
    65    33    75 1   
    66    35    36 1   
    67    35    37 1   
    68    35    77 1   
    69    55    74 1   
    70    56    74 1   
    71    57    74 1   
    72    63    73 1   
    73    65    72 1   
    74    66    72 1   
    75    67    72 1   
    76    68    75 1   
    77    69    75 1   
    78    70    77 1   
    79    71    77 1   
    80    75    77 1   
@<TRIPOS>SUBSTRUCTURE
     1 BVX         1 TEMP              0 ****  ****    0 ROOT
