@<TRIPOS>MOLECULE
BVY
   51    54     1     0     0
SMALL
No Charge or Current Charge


@<TRIPOS>ATOM
      1 C02          7.6630     1.6610     0.5830 c          1 BVY       0.613000
      2 C04          7.8200    -0.5140    -0.2980 c5         1 BVY       0.102700
      3 C05          7.1970    -1.6000     0.6430 c5         1 BVY       0.028600
      4 C07          5.2890    -0.4290    -0.6220 c5         1 BVY       0.072300
      5 C08          4.0040     0.4270    -0.7870 c3         1 BVY      -0.059400
      6 C09          2.6870    -0.3570    -0.5810 c3         1 BVY      -0.076400
      7 C10          1.4270     0.5110    -0.7920 c3         1 BVY      -0.075400
      8 C11          0.1120    -0.2720    -0.5860 c3         1 BVY      -0.073400
      9 C12         -1.1490     0.5950    -0.7960 c3         1 BVY      -0.088700
     10 C13         -2.4280    -0.1670    -0.5780 cc         1 BVY       0.211300
     11 C14         -3.2140    -0.1790     0.5300 cd         1 BVY      -0.218000
     12 C17         -6.6940    -0.6830     0.6640 ca         1 BVY      -0.082300
     13 C18         -7.9120    -1.3920     0.6020 ca         1 BVY      -0.099000
     14 C19         -9.1120    -0.7260     0.2940 ca         1 BVY      -0.084000
     15 C20         -9.1040     0.6580     0.0490 ca         1 BVY      -0.137000
     16 C21         -7.8960     1.3690     0.1160 ca         1 BVY       0.172000
     17 C23         -6.6970     0.7080     0.4230 ca         1 BVY      -0.133000
     18 C26          6.6440     0.2680    -1.0160 c5         1 BVY       0.096700
     19 F22         -7.8880     2.7000    -0.1160 f          1 BVY      -0.177000
     20 N03          8.3600     0.5020     0.6100 ns         1 BVY      -0.522900
     21 N15         -4.2410    -1.0280     0.1850 na         1 BVY       0.121800
     22 N24         -4.0620    -1.5000    -1.0900 nd         1 BVY      -0.194800
     23 N25         -2.9560    -0.9700    -1.5490 nc         1 BVY      -0.362000
     24 N27          6.6820     1.5720    -0.3440 ns         1 BVY      -0.512900
     25 O01          7.8940     2.6360     1.2700 o          1 BVY      -0.578000
     26 S06          5.5180    -0.9880     1.1270 ss         1 BVY      -0.406000
     27 H1           8.5720    -0.9170    -0.9900 h1         1 BVY       0.070700
     28 H2           7.0780    -2.5480     0.1000 h1         1 BVY       0.077200
     29 H3           7.8150    -1.8010     1.5280 h1         1 BVY       0.077200
     30 H4           5.1680    -1.3270    -1.2440 h1         1 BVY       0.070700
     31 H5           4.0200     1.2700    -0.0860 hc         1 BVY       0.051700
     32 H6           3.9930     0.8610    -1.7950 hc         1 BVY       0.051700
     33 H7           2.6610    -1.2050    -1.2770 hc         1 BVY       0.048200
     34 H8           2.6660    -0.7750     0.4330 hc         1 BVY       0.048200
     35 H9           1.4540     1.3600    -0.0960 hc         1 BVY       0.036700
     36 H10          1.4420     0.9280    -1.8070 hc         1 BVY       0.036700
     37 H11          0.0840    -1.1210    -1.2810 hc         1 BVY       0.050200
     38 H12          0.0950    -0.6890     0.4290 hc         1 BVY       0.050200
     39 H13         -1.1160     1.4500    -0.1090 hc         1 BVY       0.049200
     40 H14         -1.1380     1.0110    -1.8100 hc         1 BVY       0.049200
     41 H15         -3.1260     0.3230     1.4850 h4         1 BVY       0.165000
     42 H16         -5.1530    -1.2380     2.0590 h1         1 BVY       0.071200
     43 H17         -5.5470    -2.5020     0.8880 h1         1 BVY       0.071200
     44 H18         -7.9310    -2.4630     0.7910 ha         1 BVY       0.121000
     45 H19        -10.0460    -1.2820     0.2460 ha         1 BVY       0.122000
     46 H20        -10.0280     1.1790    -0.1900 ha         1 BVY       0.135000
     47 H21         -5.7750     1.2820     0.4740 ha         1 BVY       0.133000
     48 H22          6.7830     0.3500    -2.1030 h1         1 BVY       0.062700
     49 H23          9.1330     0.4000     1.2550 hn         1 BVY       0.341500
     50 H24          6.0660     2.3600    -0.4970 hn         1 BVY       0.337500
     51 C16         -5.3990    -1.4210     1.0060 c3         1 BVY       0.131900
@<TRIPOS>BOND
     1     1    20 1   
     2     1    24 1   
     3     1    25 2   
     4     2     3 1   
     5     2    18 1   
     6     2    20 1   
     7     2    27 1   
     8     3    26 1   
     9     3    28 1   
    10     3    29 1   
    11     4     5 1   
    12     4    18 1   
    13     4    26 1   
    14     4    30 1   
    15     5     6 1   
    16     5    31 1   
    17     5    32 1   
    18     6     7 1   
    19     6    33 1   
    20     6    34 1   
    21     7     8 1   
    22     7    35 1   
    23     7    36 1   
    24     8     9 1   
    25     8    37 1   
    26     8    38 1   
    27     9    10 1   
    28     9    39 1   
    29     9    40 1   
    30    10    11 2   
    31    10    23 1   
    32    11    21 1   
    33    11    41 1   
    34    12    13 ar  
    35    12    17 ar  
    36    12    51 1   
    37    13    14 ar  
    38    13    44 1   
    39    14    15 ar  
    40    14    45 1   
    41    15    16 ar  
    42    15    46 1   
    43    16    17 ar  
    44    16    19 1   
    45    17    47 1   
    46    18    24 1   
    47    18    48 1   
    48    20    49 1   
    49    21    22 1   
    50    21    51 1   
    51    22    23 2   
    52    24    50 1   
    53    42    51 1   
    54    43    51 1   
@<TRIPOS>SUBSTRUCTURE
     1 BVY         1 TEMP              0 ****  ****    0 ROOT
