@<TRIPOS>MOLECULE
BVY
   51    54     1     0     0
SMALL
abcg2


@<TRIPOS>ATOM
      1 C02          7.8050     1.3480     0.6180 c          1 BVY       0.613000
      2 C04          7.6580    -0.6810    -0.5450 c5         1 BVY       0.102700
      3 C05          7.0490    -1.9240     0.1140 c5         1 BVY       0.028600
      4 C07          5.1670    -0.4520    -0.7750 c5         1 BVY       0.072300
      5 C08          3.9670     0.4720    -0.6880 c3         1 BVY      -0.059400
      6 C09          2.6390    -0.2620    -0.5380 c3         1 BVY      -0.076400
      7 C10          1.4470     0.6860    -0.5370 c3         1 BVY      -0.075400
      8 C11          0.1210    -0.0340    -0.3300 c3         1 BVY      -0.073400
      9 C12         -1.0720     0.9220    -0.3440 c3         1 BVY      -0.088700
     10 C13         -2.3670     0.2320    -0.0850 cc         1 BVY       0.211300
     11 C14         -3.2420     0.3870     0.9600 cd         1 BVY      -0.218000
     12 C17         -6.6690    -0.5590     0.7020 ca         1 BVY      -0.082300
     13 C18         -7.5450    -1.6110     0.4690 ca         1 BVY      -0.099000
     14 C19         -8.7160    -1.4020    -0.2490 ca         1 BVY      -0.084000
     15 C20         -9.0220    -0.1450    -0.7470 ca         1 BVY      -0.137000
     16 C21         -8.1330     0.8860    -0.5050 ca         1 BVY       0.172000
     17 C23         -6.9660     0.7080     0.2090 ca         1 BVY      -0.133000
     18 C26          6.5060     0.2620    -1.0020 c5         1 BVY       0.096700
     19 F22         -8.4190     2.1100    -0.9790 f          1 BVY      -0.177000
     20 N03          8.3970     0.1530     0.3650 ns         1 BVY      -0.522900
     21 N15         -4.2210    -0.5010     0.7100 na         1 BVY       0.121800
     22 N24         -3.9820    -1.1640    -0.4040 nd         1 BVY      -0.194800
     23 N25         -2.8690    -0.7300    -0.8910 nc         1 BVY      -0.362000
     24 N27          6.6830     1.4110    -0.1500 ns         1 BVY      -0.512900
     25 O01          8.2070     2.2100     1.3840 o          1 BVY      -0.578000
     26 S06          5.4250    -1.4270     0.7440 ss         1 BVY      -0.406000
     27 H1           8.2830    -0.9920    -1.3860 h1         1 BVY       0.070700
     28 H2           6.9270    -2.7170    -0.6250 h1         1 BVY       0.077200
     29 H3           7.6680    -2.3080     0.9240 h1         1 BVY       0.077200
     30 H4           5.0220    -1.1570    -1.6010 h1         1 BVY       0.070700
     31 H5           4.0980     1.1660     0.1460 hc         1 BVY       0.051700
     32 H6           3.9430     1.0800    -1.5990 hc         1 BVY       0.051700
     33 H7           2.5280    -0.9890    -1.3490 hc         1 BVY       0.048200
     34 H8           2.6390    -0.8400     0.3920 hc         1 BVY       0.048200
     35 H9           1.5800     1.4340     0.2520 hc         1 BVY       0.036700
     36 H10          1.4210     1.2400    -1.4820 hc         1 BVY       0.036700
     37 H11         -0.0120    -0.7920    -1.1060 hc         1 BVY       0.050200
     38 H12          0.1420    -0.5700     0.6250 hc         1 BVY       0.050200
     39 H13         -0.9310     1.6960     0.4130 hc         1 BVY       0.049200
     40 H14         -1.1110     1.4360    -1.3090 hc         1 BVY       0.049200
     41 H15         -3.2420     1.0320     1.8230 h4         1 BVY       0.165000
     42 H16         -5.3770    -0.1250     2.3630 h1         1 BVY       0.071200
     43 H17         -5.3580    -1.8080     1.8570 h1         1 BVY       0.071200
     44 H18         -7.3120    -2.5990     0.8470 ha         1 BVY       0.121000
     45 H19         -9.3940    -2.2260    -0.4280 ha         1 BVY       0.122000
     46 H20         -9.9290     0.0310    -1.3100 ha         1 BVY       0.135000
     47 H21         -6.3020     1.5480     0.3790 ha         1 BVY       0.133000
     48 H22          6.5970     0.5340    -2.0580 h1         1 BVY       0.062700
     49 H23          9.1440    -0.1990     0.9390 hn         1 BVY       0.341500
     50 H24          6.2550     2.2970    -0.3560 hn         1 BVY       0.337500
     51 C16         -5.4090    -0.7810     1.4940 c3         1 BVY       0.131900
@<TRIPOS>BOND
     1     1    20 1   
     2     1    24 1   
     3     1    25 2   
     4     2     3 1   
     5     2    18 1   
     6     2    20 1   
     7     2    27 1   
     8     3    26 1   
     9     3    28 1   
    10     3    29 1   
    11     4     5 1   
    12     4    18 1   
    13     4    26 1   
    14     4    30 1   
    15     5     6 1   
    16     5    31 1   
    17     5    32 1   
    18     6     7 1   
    19     6    33 1   
    20     6    34 1   
    21     7     8 1   
    22     7    35 1   
    23     7    36 1   
    24     8     9 1   
    25     8    37 1   
    26     8    38 1   
    27     9    10 1   
    28     9    39 1   
    29     9    40 1   
    30    10    11 2   
    31    10    23 1   
    32    11    21 1   
    33    11    41 1   
    34    12    13 ar  
    35    12    17 ar  
    36    12    51 1   
    37    13    14 ar  
    38    13    44 1   
    39    14    15 ar  
    40    14    45 1   
    41    15    16 ar  
    42    15    46 1   
    43    16    17 ar  
    44    16    19 1   
    45    17    47 1   
    46    18    24 1   
    47    18    48 1   
    48    20    49 1   
    49    21    22 1   
    50    21    51 1   
    51    22    23 2   
    52    24    50 1   
    53    42    51 1   
    54    43    51 1   
@<TRIPOS>SUBSTRUCTURE
     1 BVY         1 TEMP              0 ****  ****    0 ROOT
