@<TRIPOS>MOLECULE
BW0
   62    64     1     0     0
SMALL
abcg2


@<TRIPOS>ATOM
      1 N1          12.0420    17.9980    32.7720 n          1 BW0      -0.331300
      2 C4          12.2270    16.6410    32.9650 c          1 BW0       0.603000
      3 C5          13.1490    18.7610    32.1970 c3         1 BW0       0.099300
      4 C6           9.9680    16.5520    33.7870 cc         1 BW0       0.035600
      5 C7           9.7770    17.8590    33.5500 cd         1 BW0      -0.429600
      6 C8          10.7970    18.6190    32.8870 cd         1 BW0       0.544200
      7 C10          8.5520    18.6740    30.7820 ca         1 BW0      -0.137300
      8 C13          8.4850    15.8840    30.6120 ca         1 BW0      -0.127600
      9 C15          7.4470    17.9610    31.2480 ca         1 BW0      -0.121000
     10 C17          9.7970    12.4430    30.5170 c3         1 BW0       0.156900
     11 O11          6.1640    11.2460    35.9850 o          1 BW0      -0.879000
     12 P            6.0760    12.2820    34.8880 p5         1 BW0       1.443400
     13 O7           5.3520    11.9060    33.6230 o          1 BW0      -0.879000
     14 C19          5.4300    13.8240    35.6110 c3         1 BW0      -0.778400
     15 P1           5.6000    15.5190    34.8370 p5         1 BW0       1.377500
     16 O10          5.0950    15.4240    33.3930 o          1 BW0      -0.964500
     17 O9           7.0870    15.8900    34.9400 o          1 BW0      -0.964500
     18 O8           4.7100    16.4010    35.7240 o          1 BW0      -0.964500
     19 C18          8.5440    13.1230    35.3480 c3         1 BW0       0.193600
     20 C2           9.9370    13.0380    34.7850 c5         1 BW0       0.145300
     21 C1          11.0060    13.5950    35.7290 c5         1 BW0       0.087300
     22 O12         11.5160    12.6600    36.6620 oh         1 BW0      -0.758000
     23 O1          10.0500    13.8590    33.6020 os         1 BW0      -0.393000
     24 C3          11.3160    14.4630    33.5300 c5         1 BW0       0.338700
     25 C           12.1120    14.0130    34.7600 c5         1 BW0       0.126300
     26 O           12.9060    12.9000    34.3760 oh         1 BW0      -0.725000
     27 N           11.1480    15.9340    33.4570 n          1 BW0      -0.321000
     28 O2          13.2890    16.0800    32.7140 o          1 BW0      -0.626000
     29 N2          10.6930    19.8030    32.3590 n2         1 BW0      -0.498700
     30 O3           9.3380    20.2720    32.4360 os         1 BW0      -0.310000
     31 C9           8.7290    20.1280    31.1310 c3         1 BW0       0.205900
     32 C14          7.4050    16.5780    31.1610 ca         1 BW0      -0.051500
     33 C12          9.5630    16.5940    30.0760 ca         1 BW0      -0.051500
     34 C11          9.5820    17.9770    30.1460 ca         1 BW0      -0.121000
     35 C16          8.4780    14.4000    30.6630 c          1 BW0       0.570700
     36 O5           7.5030    13.7260    30.9260 o          1 BW0      -0.373000
     37 O4           9.6840    13.8740    30.4080 os         1 BW0      -0.481100
     38 H5          14.0590    18.1860    32.3180 h1         1 BW0       0.038700
     39 H6          12.9680    18.9520    31.1390 h1         1 BW0       0.038700
     40 H7          13.2290    19.7130    32.7160 h1         1 BW0       0.038700
     41 H8           9.1820    15.9400    34.2090 h4         1 BW0       0.340000
     42 H9           8.8360    18.3220    33.7790 ha         1 BW0       0.263000
     43 H15          6.6400    18.4900    31.7420 ha         1 BW0       0.109500
     44 H16         10.8330    12.2160    30.2830 h1         1 BW0       0.039367
     45 H17          9.5570    12.1310    31.5310 h1         1 BW0       0.039367
     46 H18          9.1290    11.9550    29.8080 h1         1 BW0       0.039367
     47 H23          5.8420    13.9010    36.6210 hc         1 BW0       0.025700
     48 H22          4.3580    13.6390    35.7360 hc         1 BW0       0.025700
     49 H20          8.2940    14.1620    35.5750 h1         1 BW0       0.057200
     50 H19          8.5110    12.5240    36.2650 h1         1 BW0       0.057200
     51 H2          10.1810    12.0050    34.5190 h1         1 BW0       0.050700
     52 H1          10.6200    14.4840    36.2370 h1         1 BW0       0.072700
     53 H26         10.8910    12.5630    37.3900 ho         1 BW0       0.523000
     54 H3          11.8310    14.1620    32.6200 h2         1 BW0       0.091700
     55 H           12.7350    14.8170    35.1560 h1         1 BW0       0.049700
     56 H4          13.0820    12.3810    35.1730 ho         1 BW0       0.510000
     57 H11          9.3510    20.6390    30.3910 h1         1 BW0       0.031700
     58 H10          7.7710    20.6380    31.2240 h1         1 BW0       0.031700
     59 H14          6.5770    16.0340    31.6000 ha         1 BW0       0.173000
     60 H13         10.3930    16.0630    29.6340 ha         1 BW0       0.173000
     61 H12         10.4340    18.5220    29.7610 ha         1 BW0       0.109500
     62 O6           7.6080    12.6240    34.3960 os         1 BW0      -0.571400
@<TRIPOS>BOND
     1     1     2 1   
     2     1     3 1   
     3     1     6 1   
     4     2    27 1   
     5     2    28 2   
     6     3    38 1   
     7     3    39 1   
     8     3    40 1   
     9     4     5 2   
    10     4    27 1   
    11     4    41 1   
    12     5     6 1   
    13     5    42 1   
    14     6    29 2   
    15     7     9 ar  
    16     7    31 1   
    17     7    34 ar  
    18     8    32 ar  
    19     8    33 ar  
    20     8    35 1   
    21     9    32 ar  
    22     9    43 1   
    23    10    37 1   
    24    10    44 1   
    25    10    45 1   
    26    10    46 1   
    27    11    12 1   
    28    12    13 1   
    29    12    14 1   
    30    12    62 1   
    31    14    15 1   
    32    14    47 1   
    33    14    48 1   
    34    15    16 1   
    35    15    17 1   
    36    15    18 1   
    37    19    20 1   
    38    19    49 1   
    39    19    50 1   
    40    19    62 1   
    41    20    21 1   
    42    20    23 1   
    43    20    51 1   
    44    21    22 1   
    45    21    25 1   
    46    21    52 1   
    47    22    53 1   
    48    23    24 1   
    49    24    25 1   
    50    24    27 1   
    51    24    54 1   
    52    25    26 1   
    53    25    55 1   
    54    26    56 1   
    55    29    30 1   
    56    30    31 1   
    57    31    57 1   
    58    31    58 1   
    59    32    59 1   
    60    33    34 ar  
    61    33    60 1   
    62    34    61 1   
    63    35    36 2   
    64    35    37 1   
@<TRIPOS>SUBSTRUCTURE
     1 BW0         1 TEMP              0 ****  ****    0 ROOT
