@<TRIPOS>MOLECULE
BW0
   62    64     1     0     0
SMALL
No Charge or Current Charge


@<TRIPOS>ATOM
      1 N1          11.6550    16.4390    32.7500 n          1 BW0      -0.331300
      2 C4          12.0240    15.5400    33.7680 c          1 BW0       0.603000
      3 C5          12.7020    16.8760    31.7850 c3         1 BW0       0.099300
      4 C6           9.7310    15.5980    34.5910 cc         1 BW0       0.035600
      5 C7           9.3720    16.4540    33.5770 cd         1 BW0      -0.429600
      6 C8          10.3450    16.8920    32.6120 cd         1 BW0       0.544200
      7 C10          8.5120    18.1090    29.1100 ca         1 BW0      -0.137300
      8 C13          8.6700    16.5770    26.7240 ca         1 BW0      -0.127600
      9 C15          7.4740    17.2260    28.7600 ca         1 BW0      -0.121000
     10 C17         10.0400    15.2190    23.4980 c3         1 BW0       0.156900
     11 O11          6.2520    11.3940    38.4050 o          1 BW0      -0.879000
     12 P            6.4240    12.6860    37.6720 p5         1 BW0       1.443400
     13 O7           5.3110    12.8840    36.6960 o          1 BW0      -0.879000
     14 C19          6.5850    13.9600    38.9090 c3         1 BW0      -0.778400
     15 P1           6.3040    15.4860    38.0590 p5         1 BW0       1.377500
     16 O10          4.8350    15.7210    37.9770 o          1 BW0      -0.964500
     17 O9           6.9630    15.5640    36.7300 o          1 BW0      -0.964500
     18 O8           6.8820    16.5140    38.9680 o          1 BW0      -0.964500
     19 C18          9.0180    12.1590    37.6720 c3         1 BW0       0.193600
     20 C2          10.2860    13.0130    37.3980 c5         1 BW0       0.145300
     21 C1          10.2420    14.4810    37.9250 c5         1 BW0       0.087300
     22 O12         10.4370    14.5960    39.3520 oh         1 BW0      -0.758000
     23 O1          10.4970    13.1820    35.9820 os         1 BW0      -0.393000
     24 C3          11.4450    14.2560    35.8170 c5         1 BW0       0.338700
     25 C           11.4430    15.1050    37.1500 c5         1 BW0       0.126300
     26 O           12.6070    14.9050    37.9590 oh         1 BW0      -0.725000
     27 N           11.0390    15.1330    34.6820 n          1 BW0      -0.321000
     28 O2          13.1730    15.1260    33.8580 o          1 BW0      -0.626000
     29 N2          10.0090    17.6890    31.6340 n2         1 BW0      -0.498700
     30 O3           8.6480    18.0980    31.5480 os         1 BW0      -0.310000
     31 C9           8.4200    18.9380    30.3930 c3         1 BW0       0.205900
     32 C14          7.5510    16.4660    27.5790 ca         1 BW0      -0.051500
     33 C12          9.7110    17.4670    27.0790 ca         1 BW0      -0.051500
     34 C11          9.6290    18.2250    28.2610 ca         1 BW0      -0.121000
     35 C16          8.7360    15.7510    25.4600 c          1 BW0       0.570700
     36 O5           7.8510    14.9740    25.1290 o          1 BW0      -0.373000
     37 O4           9.8780    15.9580    24.7230 os         1 BW0      -0.481100
     38 H5          13.7050    16.8170    32.2250 h1         1 BW0       0.038700
     39 H6          12.6650    16.2380    30.8930 h1         1 BW0       0.038700
     40 H7          12.5410    17.9190    31.4860 h1         1 BW0       0.038700
     41 H8           9.0530    15.1980    35.3500 h4         1 BW0       0.340000
     42 H9           8.3440    16.7870    33.5100 ha         1 BW0       0.263000
     43 H15          6.6050    17.1260    29.4070 ha         1 BW0       0.109500
     44 H16         10.9900    15.4820    23.0170 h1         1 BW0       0.039367
     45 H17         10.0430    14.1380    23.6900 h1         1 BW0       0.039367
     46 H18          9.2280    15.4460    22.7940 h1         1 BW0       0.039367
     47 H23          7.5740    13.9420    39.3690 hc         1 BW0       0.025700
     48 H22          5.8300    13.8180    39.6860 hc         1 BW0       0.025700
     49 H20          8.8530    12.1140    38.7570 h1         1 BW0       0.057200
     50 H19          9.2060    11.1340    37.3260 h1         1 BW0       0.057200
     51 H2          11.1530    12.4800    37.8140 h1         1 BW0       0.050700
     52 H1           9.3070    14.9690    37.6240 h1         1 BW0       0.072700
     53 H26          9.5490    14.7870    39.7460 ho         1 BW0       0.523000
     54 H3          12.4430    13.8450    35.6230 h2         1 BW0       0.091700
     55 H           11.2860    16.1760    36.9620 h1         1 BW0       0.049700
     56 H4          12.1880    14.7520    38.8500 ho         1 BW0       0.510000
     57 H11          9.1410    19.7660    30.3640 h1         1 BW0       0.031700
     58 H10          7.4180    19.3820    30.4510 h1         1 BW0       0.031700
     59 H14          6.7340    15.7890    27.3320 ha         1 BW0       0.173000
     60 H13         10.5880    17.5770    26.4450 ha         1 BW0       0.173000
     61 H12         10.4400    18.9020    28.5190 ha         1 BW0       0.109500
     62 O6           7.8830    12.7160    36.9790 os         1 BW0      -0.571400
@<TRIPOS>BOND
     1     1     2 1   
     2     1     3 1   
     3     1     6 1   
     4     2    27 1   
     5     2    28 2   
     6     3    38 1   
     7     3    39 1   
     8     3    40 1   
     9     4     5 2   
    10     4    27 1   
    11     4    41 1   
    12     5     6 1   
    13     5    42 1   
    14     6    29 2   
    15     7     9 ar  
    16     7    31 1   
    17     7    34 ar  
    18     8    32 ar  
    19     8    33 ar  
    20     8    35 1   
    21     9    32 ar  
    22     9    43 1   
    23    10    37 1   
    24    10    44 1   
    25    10    45 1   
    26    10    46 1   
    27    11    12 1   
    28    12    13 1   
    29    12    14 1   
    30    12    62 1   
    31    14    15 1   
    32    14    47 1   
    33    14    48 1   
    34    15    16 1   
    35    15    17 1   
    36    15    18 1   
    37    19    20 1   
    38    19    49 1   
    39    19    50 1   
    40    19    62 1   
    41    20    21 1   
    42    20    23 1   
    43    20    51 1   
    44    21    22 1   
    45    21    25 1   
    46    21    52 1   
    47    22    53 1   
    48    23    24 1   
    49    24    25 1   
    50    24    27 1   
    51    24    54 1   
    52    25    26 1   
    53    25    55 1   
    54    26    56 1   
    55    29    30 1   
    56    30    31 1   
    57    31    57 1   
    58    31    58 1   
    59    32    59 1   
    60    33    34 ar  
    61    33    60 1   
    62    34    61 1   
    63    35    36 2   
    64    35    37 1   
@<TRIPOS>SUBSTRUCTURE
     1 BW0         1 TEMP              0 ****  ****    0 ROOT
