@<TRIPOS>MOLECULE
BW1
   50    54     1     0     0
SMALL
bcc


@<TRIPOS>ATOM
      1 CAG          7.9670    -1.0950     0.0340 cx         1 BW1      -0.132900
      2 CAL          7.0680    -1.0050     1.2330 cx         1 BW1      -0.132900
      3 CAI          6.4930    -1.3080    -0.1160 cx         1 BW1      -0.117700
      4 CAH          5.6510    -0.2760    -0.8290 c3         1 BW1       0.028900
      5 CAN          4.2220    -0.3040    -0.3940 cc         1 BW1      -0.221600
      6 CAM          3.7020    -0.0080     0.9090 cc         1 BW1      -0.252300
      7 CAO          3.1390    -0.6290    -1.1400 cd         1 BW1       0.239600
      8 OAP          2.0070    -0.5590    -0.4020 os         1 BW1      -0.303800
      9 CAQ          2.3610    -0.1800     0.8440 cd         1 BW1       0.198000
     10 CAR          1.2860    -0.0150     1.8600 c3         1 BW1       0.203500
     11 NAV          0.3690     1.0600     1.5520 nu         1 BW1      -0.872900
     12 C4          -0.8150     0.8910     0.9430 ca         1 BW1       0.757200
     13 N3          -1.2010    -0.3380     0.6590 nb         1 BW1      -0.823000
     14 C5          -1.6520     2.0110     0.6320 ca         1 BW1      -0.357600
     15 CAD         -1.3420     3.3600     0.8850 ca         1 BW1      -0.045000
     16 CAF         -2.2150     4.3590     0.5600 ca         1 BW1      -0.207000
     17 CAA         -3.4650     4.0630    -0.0440 ca         1 BW1       0.202600
     18 NAX         -4.3390     5.0750    -0.3090 nv         1 BW1      -0.843200
     19 CAB         -3.7790     2.7380    -0.3060 ca         1 BW1      -0.287300
     20 C6          -2.8910     1.7050     0.0250 ca         1 BW1       0.502600
     21 N1          -3.2480     0.4230    -0.2520 nb         1 BW1      -0.755000
     22 C2          -2.3950    -0.5130     0.0750 cp         1 BW1       0.780500
     23 CAW         -2.7680    -1.9160    -0.2270 cp         1 BW1      -0.150500
     24 CAS         -1.8740    -2.9580     0.0210 ca         1 BW1      -0.083000
     25 CAJ         -2.2240    -4.2700    -0.2620 ca         1 BW1      -0.149000
     26 CAK         -3.4730    -4.5610    -0.7960 ca         1 BW1      -0.113000
     27 CAT         -4.3690    -3.5290    -1.0470 ca         1 BW1      -0.149000
     28 CAU         -4.0200    -2.2170    -0.7660 ca         1 BW1      -0.083000
     29 H1           8.3870    -0.1740    -0.3550 hc         1 BW1       0.069450
     30 H2           8.6240    -1.9510    -0.0530 hc         1 BW1       0.069450
     31 H3           7.1080    -1.7980     1.9680 hc         1 BW1       0.069450
     32 H4           6.8840    -0.0230     1.6520 hc         1 BW1       0.069450
     33 H5           6.1730    -2.3320    -0.2780 hc         1 BW1       0.079700
     34 H6           6.0710     0.7180    -0.6460 hc         1 BW1       0.048200
     35 H7           5.7060    -0.4370    -1.9090 hc         1 BW1       0.048200
     36 H8           4.2570     0.3000     1.7810 ha         1 BW1       0.156000
     37 H9           3.0270    -0.9190    -2.1730 h4         1 BW1       0.053100
     38 H10          0.7120    -0.9340     1.9730 h1         1 BW1       0.078700
     39 H11          1.7570     0.1970     2.8200 h1         1 BW1       0.078700
     40 H12          0.7050     1.9940     1.7160 hn         1 BW1       0.438800
     41 H13         -0.4020     3.6430     1.3430 ha         1 BW1       0.120000
     42 H14         -1.9540     5.3900     0.7640 ha         1 BW1       0.131000
     43 H15         -5.0960     4.8860    -0.9450 hn         1 BW1       0.410300
     44 H16         -3.9680     6.0070    -0.3830 hn         1 BW1       0.410300
     45 H17         -4.7220     2.4760    -0.7720 ha         1 BW1       0.150000
     46 H18         -0.9010    -2.7320     0.4350 ha         1 BW1       0.151500
     47 H19         -1.5190    -5.0680    -0.0650 ha         1 BW1       0.129000
     48 H20         -3.7470    -5.5850    -1.0140 ha         1 BW1       0.127000
     49 H21         -5.3430    -3.7480    -1.4640 ha         1 BW1       0.129000
     50 H22         -4.7200    -1.4160    -0.9630 ha         1 BW1       0.151500
@<TRIPOS>BOND
     1     1     2 1   
     2     1     3 1   
     3     1    29 1   
     4     1    30 1   
     5     2     3 1   
     6     2    31 1   
     7     2    32 1   
     8     3     4 1   
     9     3    33 1   
    10     4     5 1   
    11     4    34 1   
    12     4    35 1   
    13     5     6 1   
    14     5     7 2   
    15     6     9 2   
    16     6    36 1   
    17     7     8 1   
    18     7    37 1   
    19     8     9 1   
    20     9    10 1   
    21    10    11 1   
    22    10    38 1   
    23    10    39 1   
    24    11    12 1   
    25    11    40 1   
    26    12    13 ar  
    27    12    14 ar  
    28    13    22 ar  
    29    14    15 ar  
    30    14    20 ar  
    31    15    16 ar  
    32    15    41 1   
    33    16    17 ar  
    34    16    42 1   
    35    17    18 1   
    36    17    19 ar  
    37    18    43 1   
    38    18    44 1   
    39    19    20 ar  
    40    19    45 1   
    41    20    21 ar  
    42    21    22 ar  
    43    22    23 1   
    44    23    24 ar  
    45    23    28 ar  
    46    24    25 ar  
    47    24    46 1   
    48    25    26 ar  
    49    25    47 1   
    50    26    27 ar  
    51    26    48 1   
    52    27    28 ar  
    53    27    49 1   
    54    28    50 1   
@<TRIPOS>SUBSTRUCTURE
     1 BW1         1 TEMP              0 ****  ****    0 ROOT
