@<TRIPOS>MOLECULE
BW1
   50    54     1     0     0
SMALL
No Charge or Current Charge


@<TRIPOS>ATOM
      1 CAG          6.7910    -0.2870    -1.1770 cx         1 BW1      -0.132900
      2 CAL          6.2950     0.3030     0.1230 cx         1 BW1      -0.132900
      3 CAI          5.7230    -1.0020    -0.3820 cx         1 BW1      -0.117700
      4 CAH          4.2880    -1.0850    -0.8910 c3         1 BW1       0.028900
      5 CAN          3.3180    -1.2740     0.2430 cc         1 BW1      -0.156300
      6 CAM          2.7770    -0.2330     1.0240 cc         1 BW1      -0.169000
      7 CAO          2.7720    -2.4270     0.7440 cd         1 BW1       0.129900
      8 OAP          1.9200    -2.1810     1.7970 os         1 BW1      -0.215000
      9 CAQ          1.9420    -0.8130     1.9400 cd         1 BW1       0.088300
     10 CAR          1.0850    -0.1770     3.0160 c3         1 BW1       0.203500
     11 NAV          0.2830     0.9470     2.4660 nu         1 BW1      -0.928100
     12 C4          -0.6890     0.8840     1.4670 ca         1 BW1       0.428900
     13 N3          -1.0210    -0.3420     1.0370 nb         1 BW1      -0.297000
     14 C5          -1.2940     2.0410     0.9300 ca         1 BW1      -0.227000
     15 CAD         -0.9740     3.3490     1.3570 ca         1 BW1      -0.027000
     16 CAF         -1.6190     4.4520     0.7750 ca         1 BW1      -0.189000
     17 CAA         -2.5770     4.2600    -0.2260 ca         1 BW1       0.341000
     18 NAX         -3.2010     5.3370    -0.7890 nv         1 BW1      -1.092000
     19 CAB         -2.8960     2.9670    -0.6510 ca         1 BW1      -0.204000
     20 C6          -2.2620     1.8480    -0.0830 ca         1 BW1       0.109000
     21 N1          -2.5730     0.6060    -0.5020 nb         1 BW1      -0.229000
     22 C2          -1.9450    -0.4450     0.0630 cp         1 BW1       0.254500
     23 CAW         -2.2660    -1.8260    -0.4550 cp         1 BW1      -0.150500
     24 CAS         -1.5740    -2.9770     0.0220 ca         1 BW1      -0.065000
     25 CAJ         -1.8720    -4.2620    -0.4640 ca         1 BW1      -0.131000
     26 CAK         -2.8670    -4.4370    -1.4370 ca         1 BW1      -0.095000
     27 CAT         -3.5650    -3.3220    -1.9250 ca         1 BW1      -0.131000
     28 CAU         -3.2700    -2.0350    -1.4430 ca         1 BW1      -0.065000
     29 H1           6.4980     0.2070    -2.1010 hc         1 BW1       0.069450
     30 H2           7.7880    -0.7210    -1.1900 hc         1 BW1       0.069450
     31 H3           6.9570     0.2650     0.9840 hc         1 BW1       0.069450
     32 H4           5.6680     1.1900     0.0700 hc         1 BW1       0.069450
     33 H5           6.0290    -1.9040     0.1440 hc         1 BW1       0.079700
     34 H6           4.0280    -0.1790    -1.4530 hc         1 BW1       0.048200
     35 H7           4.1990    -1.9200    -1.5970 hc         1 BW1       0.048200
     36 H8           2.9820     0.8260     0.9080 ha         1 BW1       0.138000
     37 H9           2.9090    -3.4590     0.4460 h4         1 BW1       0.053100
     38 H10          0.4240    -0.9430     3.4470 h1         1 BW1       0.078700
     39 H11          1.7440     0.1790     3.8200 h1         1 BW1       0.078700
     40 H12          0.5250     1.8850     2.7800 hn         1 BW1       0.494000
     41 H13         -0.2340     3.5270     2.1330 ha         1 BW1       0.102000
     42 H14         -1.3700     5.4560     1.1080 ha         1 BW1       0.113000
     43 H15         -3.7630     5.2090    -1.6280 hn         1 BW1       0.465500
     44 H16         -2.8510     6.2750    -0.6030 hn         1 BW1       0.465500
     45 H17         -3.6400     2.8220    -1.4290 ha         1 BW1       0.132000
     46 H18         -0.7940    -2.8810     0.7740 ha         1 BW1       0.133500
     47 H19         -1.3280    -5.1240    -0.0840 ha         1 BW1       0.111000
     48 H20         -3.0960    -5.4320    -1.8120 ha         1 BW1       0.109000
     49 H21         -4.3370    -3.4540    -2.6800 ha         1 BW1       0.111000
     50 H22         -3.8320    -1.1950    -1.8440 ha         1 BW1       0.133500
@<TRIPOS>BOND
     1     1     2 1   
     2     1     3 1   
     3     1    29 1   
     4     1    30 1   
     5     2     3 1   
     6     2    31 1   
     7     2    32 1   
     8     3     4 1   
     9     3    33 1   
    10     4     5 1   
    11     4    34 1   
    12     4    35 1   
    13     5     6 1   
    14     5     7 2   
    15     6     9 2   
    16     6    36 1   
    17     7     8 1   
    18     7    37 1   
    19     8     9 1   
    20     9    10 1   
    21    10    11 1   
    22    10    38 1   
    23    10    39 1   
    24    11    12 1   
    25    11    40 1   
    26    12    13 ar  
    27    12    14 ar  
    28    13    22 ar  
    29    14    15 ar  
    30    14    20 ar  
    31    15    16 ar  
    32    15    41 1   
    33    16    17 ar  
    34    16    42 1   
    35    17    18 1   
    36    17    19 ar  
    37    18    43 1   
    38    18    44 1   
    39    19    20 ar  
    40    19    45 1   
    41    20    21 ar  
    42    21    22 ar  
    43    22    23 1   
    44    23    24 ar  
    45    23    28 ar  
    46    24    25 ar  
    47    24    46 1   
    48    25    26 ar  
    49    25    47 1   
    50    26    27 ar  
    51    26    48 1   
    52    27    28 ar  
    53    27    49 1   
    54    28    50 1   
@<TRIPOS>SUBSTRUCTURE
     1 BW1         1 TEMP              0 ****  ****    0 ROOT
