@<TRIPOS>MOLECULE
BW2
   51    53     1     0     0
SMALL
abcg2


@<TRIPOS>ATOM
      1 O22          0.7110     3.7620    -8.6420 o          1 BW2      -0.735500
      2 C22         -0.2450     3.7120    -7.8390 c          1 BW2       0.725000
      3 O23         -0.1880     4.0280    -6.6240 o          1 BW2      -0.735500
      4 C21         -1.6040     3.2770    -8.3710 c3         1 BW2      -0.165400
      5 C20         -2.3340     2.2300    -7.5330 c3         1 BW2      -0.031400
      6 C18         -1.6550     0.8570    -7.3720 c3         1 BW2      -0.038300
      7 N           -0.7330     0.7560    -6.2590 ns         1 BW2      -0.423900
      8 C17         -1.1100     0.4140    -5.0280 c          1 BW2       0.593700
      9 O17         -2.2750     0.4480    -4.6440 o          1 BW2      -0.665100
     10 C11         -0.0370    -0.0790    -4.0950 ca         1 BW2      -0.056600
     11 C12         -0.3080    -0.0780    -2.7280 ca         1 BW2      -0.094000
     12 C13          0.6180    -0.5610    -1.8210 ca         1 BW2      -0.041000
     13 C14          1.8250    -1.0620    -2.2900 ca         1 BW2      -0.292500
     14 C15          2.1030    -1.1030    -3.6470 ca         1 BW2      -0.041000
     15 C16          1.1670    -0.6120    -4.5450 ca         1 BW2      -0.094000
     16 S10          3.1060    -1.4420    -1.1220 sy         1 BW2       1.109600
     17 O2           4.1280    -2.2090    -1.8100 o          1 BW2      -0.563500
     18 O1           2.5270    -1.9420     0.1130 o          1 BW2      -0.563500
     19 N9           3.7770     0.0560    -0.7520 nu         1 BW2      -0.822100
     20 C6           3.9910     0.8760    -1.8990 ca         1 BW2       0.097000
     21 C5           2.9980     1.7250    -2.3380 ca         1 BW2      -0.024000
     22 C4A          3.0940     2.3270    -3.5860 ca         1 BW2      -0.266600
     23 C8A          4.2090     2.1050    -4.4130 ca         1 BW2       0.275400
     24 N1           4.2940     2.5890    -5.6810 nc         1 BW2      -0.788100
     25 C2           3.2360     3.1910    -6.1600 cd         1 BW2       0.744800
     26 N2           3.2350     3.6550    -7.4190 nv         1 BW2      -1.030200
     27 N3           2.0980     3.4160    -5.4380 ns         1 BW2      -0.458400
     28 C4           1.9580     3.0640    -4.1240 c          1 BW2       0.580600
     29 O4           0.9450     3.3310    -3.4950 o          1 BW2      -0.554000
     30 C8           5.2560     1.3130    -3.9020 ca         1 BW2      -0.158000
     31 C7           5.1400     0.6950    -2.6790 ca         1 BW2      -0.044000
     32 C19         -0.9160     0.4110    -8.6570 c          1 BW2       0.723000
     33 O19         -1.6240     0.3020    -9.6730 o          1 BW2      -0.732500
     34 O20          0.3080     0.1970    -8.5600 o          1 BW2      -0.732500
     35 H211        -1.5040     2.9280    -9.3990 hc         1 BW2       0.032200
     36 H212        -2.2410     4.1680    -8.4110 hc         1 BW2       0.032200
     37 H201        -2.5480     2.6290    -6.5400 hc         1 BW2       0.024200
     38 H202        -3.3040     2.0550    -8.0020 hc         1 BW2       0.024200
     39 H18         -2.4560     0.1330    -7.1940 h1         1 BW2       0.033700
     40 HN           0.2310     0.6900    -6.5550 hn         1 BW2       0.345500
     41 H12         -1.2500     0.3120    -2.3680 ha         1 BW2       0.141000
     42 H13          0.4000    -0.5250    -0.7610 ha         1 BW2       0.121500
     43 H15          3.0420    -1.4940    -4.0150 ha         1 BW2       0.121500
     44 H16          1.3940    -0.6780    -5.6010 ha         1 BW2       0.141000
     45 HN9          3.2360     0.5080    -0.0210 hn         1 BW2       0.463000
     46 H5           2.1030     1.8730    -1.7460 ha         1 BW2       0.123000
     47 HN21         3.9990     3.3400    -7.9940 hn         1 BW2       0.520000
     48 HN22         2.3360     3.8070    -7.9000 hn         1 BW2       0.520000
     49 HN3          1.2270     3.7820    -5.9220 hn         1 BW2       0.428500
     50 H8           6.1370     1.1580    -4.5120 ha         1 BW2       0.118000
     51 H7           5.9300     0.0470    -2.3220 ha         1 BW2       0.116000
@<TRIPOS>BOND
     1     1     2 1   
     2     2     3 1   
     3     2     4 1   
     4     4     5 1   
     5     4    35 1   
     6     4    36 1   
     7     5     6 1   
     8     5    37 1   
     9     5    38 1   
    10     6     7 1   
    11     6    32 1   
    12     6    39 1   
    13     7     8 1   
    14     7    40 1   
    15     8     9 2   
    16     8    10 1   
    17    10    11 ar  
    18    10    15 ar  
    19    11    12 ar  
    20    11    41 1   
    21    12    13 ar  
    22    12    42 1   
    23    13    14 ar  
    24    13    16 1   
    25    14    15 ar  
    26    14    43 1   
    27    15    44 1   
    28    16    17 2   
    29    16    18 2   
    30    16    19 1   
    31    19    20 1   
    32    19    45 1   
    33    20    21 ar  
    34    20    31 ar  
    35    21    22 ar  
    36    21    46 1   
    37    22    23 ar  
    38    22    28 1   
    39    23    24 1   
    40    23    30 ar  
    41    24    25 2   
    42    25    26 1   
    43    25    27 1   
    44    26    47 1   
    45    26    48 1   
    46    27    28 1   
    47    27    49 1   
    48    28    29 2   
    49    30    31 ar  
    50    30    50 1   
    51    31    51 1   
    52    32    33 1   
    53    32    34 1   
@<TRIPOS>SUBSTRUCTURE
     1 BW2         1 TEMP              0 ****  ****    0 ROOT
