@<TRIPOS>MOLECULE
BW2
   51    53     1     0     0
SMALL
No Charge or Current Charge


@<TRIPOS>ATOM
      1 O22          0.8770     2.8670    -8.0370 o          1 BW2      -0.735500
      2 C22         -0.0990     3.4880    -7.6500 c          1 BW2       0.725000
      3 O23         -0.0430     4.3140    -6.7510 o          1 BW2      -0.735500
      4 C21         -1.4440     3.2520    -8.3470 c3         1 BW2      -0.165400
      5 C20         -2.3450     2.2340    -7.5910 c3         1 BW2      -0.031400
      6 C18         -1.8780     0.7470    -7.5280 c3         1 BW2      -0.038300
      7 N           -0.9150     0.4740    -6.4290 ns         1 BW2      -0.423900
      8 C17         -1.2570     0.3150    -5.0970 c          1 BW2       0.593700
      9 O17         -2.4020     0.5280    -4.7110 o          1 BW2      -0.665100
     10 C11         -0.1730    -0.1730    -4.1470 ca         1 BW2      -0.056600
     11 C12         -0.4540    -0.2510    -2.7620 ca         1 BW2      -0.094000
     12 C13          0.5180    -0.6870    -1.8440 ca         1 BW2      -0.041000
     13 C14          1.7950    -1.0680    -2.2960 ca         1 BW2      -0.292500
     14 C15          2.0810    -1.0180    -3.6760 ca         1 BW2      -0.041000
     15 C16          1.1100    -0.5730    -4.5930 ca         1 BW2      -0.094000
     16 S10          3.1060    -1.4590    -1.1150 sy         1 BW2       1.109600
     17 O2           4.1400    -2.2880    -1.7430 o          1 BW2      -0.563500
     18 O1           2.5360    -1.7640     0.1990 o          1 BW2      -0.563500
     19 N9           3.8600     0.0270    -0.8660 nu         1 BW2      -0.822100
     20 C6           4.1080     0.9040    -1.9210 ca         1 BW2       0.097000
     21 C5           3.1030     1.8030    -2.3140 ca         1 BW2      -0.024000
     22 C4A          3.1990     2.4750    -3.5460 ca         1 BW2      -0.266600
     23 C8A          4.3310     2.3120    -4.3700 ca         1 BW2       0.275400
     24 N1           4.4530     2.8740    -5.6510 nc         1 BW2      -0.788100
     25 C2           3.3690     3.5180    -5.9920 cd         1 BW2       0.744800
     26 N2           3.3580     3.8960    -7.2440 nv         1 BW2      -1.030200
     27 N3           2.2510     3.7240    -5.3000 ns         1 BW2      -0.458400
     28 C4           2.0620     3.2740    -4.0540 c          1 BW2       0.580600
     29 O4           1.0380     3.4930    -3.4300 o          1 BW2      -0.554000
     30 C8           5.3740     1.4850    -3.9170 ca         1 BW2      -0.158000
     31 C7           5.2570     0.7640    -2.7150 ca         1 BW2      -0.044000
     32 C19         -1.3730     0.1730    -8.8950 c          1 BW2       0.723000
     33 O19         -2.1510     0.1690    -9.8400 o          1 BW2      -0.732500
     34 O20         -0.2600    -0.3340    -8.9480 o          1 BW2      -0.732500
     35 H211        -1.2880     2.8590    -9.3580 hc         1 BW2       0.032200
     36 H212        -2.0220     4.1840    -8.3310 hc         1 BW2       0.032200
     37 H201        -2.5300     2.6040    -6.5750 hc         1 BW2       0.024200
     38 H202        -3.3220     2.2440    -8.0880 hc         1 BW2       0.024200
     39 H18         -2.7720     0.1570    -7.2910 h1         1 BW2       0.033700
     40 HN           0.0430     0.2780    -6.6910 hn         1 BW2       0.345500
     41 H12         -1.4300     0.0460    -2.3860 ha         1 BW2       0.141000
     42 H13          0.2800    -0.7010    -0.7820 ha         1 BW2       0.121500
     43 H15          3.0710    -1.2890    -4.0400 ha         1 BW2       0.121500
     44 H16          1.3760    -0.5410    -5.6460 ha         1 BW2       0.141000
     45 HN9          3.2900     0.4130    -0.1250 hn         1 BW2       0.463000
     46 H5           2.1970     1.8900    -1.7190 ha         1 BW2       0.123000
     47 HN21         4.1740     3.5400    -7.7200 hn         1 BW2       0.520000
     48 HN22         2.4860     3.6350    -7.7120 hn         1 BW2       0.520000
     49 HN3          1.4550     4.1650    -5.7470 hn         1 BW2       0.428500
     50 H8           6.2530     1.3430    -4.5390 ha         1 BW2       0.118000
     51 H7           6.0330     0.0600    -2.4260 ha         1 BW2       0.116000
@<TRIPOS>BOND
     1     1     2 1   
     2     2     3 1   
     3     2     4 1   
     4     4     5 1   
     5     4    35 1   
     6     4    36 1   
     7     5     6 1   
     8     5    37 1   
     9     5    38 1   
    10     6     7 1   
    11     6    32 1   
    12     6    39 1   
    13     7     8 1   
    14     7    40 1   
    15     8     9 2   
    16     8    10 1   
    17    10    11 ar  
    18    10    15 ar  
    19    11    12 ar  
    20    11    41 1   
    21    12    13 ar  
    22    12    42 1   
    23    13    14 ar  
    24    13    16 1   
    25    14    15 ar  
    26    14    43 1   
    27    15    44 1   
    28    16    17 2   
    29    16    18 2   
    30    16    19 1   
    31    19    20 1   
    32    19    45 1   
    33    20    21 ar  
    34    20    31 ar  
    35    21    22 ar  
    36    21    46 1   
    37    22    23 ar  
    38    22    28 1   
    39    23    24 1   
    40    23    30 ar  
    41    24    25 2   
    42    25    26 1   
    43    25    27 1   
    44    26    47 1   
    45    26    48 1   
    46    27    28 1   
    47    27    49 1   
    48    28    29 2   
    49    30    31 ar  
    50    30    50 1   
    51    31    51 1   
    52    32    33 1   
    53    32    34 1   
@<TRIPOS>SUBSTRUCTURE
     1 BW2         1 TEMP              0 ****  ****    0 ROOT
