@<TRIPOS>MOLECULE
BW3
   30    30     1     0     0
SMALL
No Charge or Current Charge


@<TRIPOS>ATOM
      1 C1          19.2220   -35.9840    36.6250 c6         1 BW3       0.357300
      2 C2          18.4770   -35.2710    35.4480 c6         1 BW3       0.113300
      3 O2          17.0380   -35.3290    35.6090 oh         1 BW3      -0.707000
      4 C3          18.8890   -35.9210    34.0950 c6         1 BW3       0.178300
      5 O3          18.2630   -35.2260    32.9990 oh         1 BW3      -0.649000
      6 C4          20.4360   -35.9260    33.9300 c6         1 BW3       0.152300
      7 O4          20.7900   -36.5700    32.6870 oh         1 BW3      -0.703000
      8 C5          21.0780   -36.6380    35.1610 c6         1 BW3       0.135300
      9 O5          20.6490   -35.9960    36.3940 os         1 BW3      -0.464000
     10 C6          22.6440   -36.6200    35.1270 c3         1 BW3       0.163600
     11 O6          23.2150   -35.2990    35.2480 oh         1 BW3      -0.714000
     12 O1          18.7370   -37.3310    36.7900 os         1 BW3      -0.468000
     13 C7          19.2130   -38.0410    37.9430 c3         1 BW3       0.163600
     14 C8          18.5680   -39.4350    37.9240 c3         1 BW3      -0.094100
     15 H1          19.0200   -35.4210    37.5490 h2         1 BW3       0.063700
     16 H2          18.8050   -34.2200    35.4370 h1         1 BW3       0.055700
     17 H3          16.8450   -36.2030    36.0280 ho         1 BW3       0.508000
     18 H4          18.5490   -36.9690    34.1090 h1         1 BW3       0.068700
     19 H5          17.3700   -34.9780    33.3330 ho         1 BW3       0.457000
     20 H6          20.7830   -34.8820    33.9210 h1         1 BW3       0.065700
     21 H7          20.1380   -36.2290    32.0290 ho         1 BW3       0.507000
     22 H8          20.7560   -37.6900    35.1770 h1         1 BW3       0.062700
     23 H9          22.9790   -37.0930    34.1940 h1         1 BW3       0.030200
     24 H10         23.0000   -37.2540    35.9500 h1         1 BW3       0.030200
     25 H11         24.1930   -35.4120    35.2870 ho         1 BW3       0.503000
     26 H12         20.3050   -38.1450    37.9180 h1         1 BW3       0.025700
     27 H13         18.9320   -37.5180    38.8660 h1         1 BW3       0.025700
     28 H14         18.9020   -40.0190    38.7890 hc         1 BW3       0.044033
     29 H15         17.4750   -39.3550    37.9640 hc         1 BW3       0.044033
     30 H16         18.8480   -39.9770    37.0130 hc         1 BW3       0.044033
@<TRIPOS>BOND
     1     1     2 1   
     2     1     9 1   
     3     1    12 1   
     4     1    15 1   
     5     2     3 1   
     6     2     4 1   
     7     2    16 1   
     8     3    17 1   
     9     4     5 1   
    10     4     6 1   
    11     4    18 1   
    12     5    19 1   
    13     6     7 1   
    14     6     8 1   
    15     6    20 1   
    16     7    21 1   
    17     8     9 1   
    18     8    10 1   
    19     8    22 1   
    20    10    11 1   
    21    10    23 1   
    22    10    24 1   
    23    11    25 1   
    24    12    13 1   
    25    13    14 1   
    26    13    26 1   
    27    13    27 1   
    28    14    28 1   
    29    14    29 1   
    30    14    30 1   
@<TRIPOS>SUBSTRUCTURE
     1 BW3         1 TEMP              0 ****  ****    0 ROOT
