@<TRIPOS>MOLECULE
BW3
   30    30     1     0     0
SMALL
abcg2


@<TRIPOS>ATOM
      1 C1          19.2350   -36.1420    36.6180 c6         1 BW3       0.357300
      2 C2          18.4500   -35.4370    35.5100 c6         1 BW3       0.113300
      3 O2          17.0590   -35.5720    35.6630 oh         1 BW3      -0.707000
      4 C3          18.8240   -35.9840    34.1350 c6         1 BW3       0.178300
      5 O3          18.2040   -35.2480    33.1110 oh         1 BW3      -0.649000
      6 C4          20.3310   -35.8920    33.9550 c6         1 BW3       0.152300
      7 O4          20.6710   -36.4960    32.7300 oh         1 BW3      -0.703000
      8 C5          21.0210   -36.6050    35.1270 c6         1 BW3       0.135300
      9 O5          20.6080   -36.0410    36.3620 os         1 BW3      -0.464000
     10 C6          22.5320   -36.5500    35.0750 c3         1 BW3       0.163600
     11 O6          22.9660   -35.2120    35.0200 oh         1 BW3      -0.714000
     12 O1          18.7990   -37.4550    36.7120 os         1 BW3      -0.468000
     13 C7          19.2950   -38.1670    37.8330 c3         1 BW3       0.163600
     14 C8          18.5500   -39.4770    37.9470 c3         1 BW3      -0.094100
     15 H1          19.0870   -35.6190    37.5750 h2         1 BW3       0.063700
     16 H2          18.7470   -34.3790    35.5420 h1         1 BW3       0.055700
     17 H3          16.7570   -34.9510    36.3320 ho         1 BW3       0.508000
     18 H4          18.5310   -37.0450    34.0840 h1         1 BW3       0.068700
     19 H5          17.2550   -35.2590    33.2750 ho         1 BW3       0.457000
     20 H6          20.6130   -34.8310    33.9660 h1         1 BW3       0.065700
     21 H7          21.5090   -36.1330    32.4310 ho         1 BW3       0.507000
     22 H8          20.7520   -37.6700    35.0800 h1         1 BW3       0.062700
     23 H9          22.8630   -37.1270    34.2030 h1         1 BW3       0.030200
     24 H10         22.9240   -37.0720    35.9580 h1         1 BW3       0.030200
     25 H11         23.9150   -35.2090    34.8680 ho         1 BW3       0.503000
     26 H12         20.3690   -38.3560    37.7320 h1         1 BW3       0.025700
     27 H13         19.1580   -37.5720    38.7450 h1         1 BW3       0.025700
     28 H14         18.9220   -40.0370    38.8050 hc         1 BW3       0.044033
     29 H15         17.4810   -39.3180    38.0890 hc         1 BW3       0.044033
     30 H16         18.6920   -40.0950    37.0600 hc         1 BW3       0.044033
@<TRIPOS>BOND
     1     1     2 1   
     2     1     9 1   
     3     1    12 1   
     4     1    15 1   
     5     2     3 1   
     6     2     4 1   
     7     2    16 1   
     8     3    17 1   
     9     4     5 1   
    10     4     6 1   
    11     4    18 1   
    12     5    19 1   
    13     6     7 1   
    14     6     8 1   
    15     6    20 1   
    16     7    21 1   
    17     8     9 1   
    18     8    10 1   
    19     8    22 1   
    20    10    11 1   
    21    10    23 1   
    22    10    24 1   
    23    11    25 1   
    24    12    13 1   
    25    13    14 1   
    26    13    26 1   
    27    13    27 1   
    28    14    28 1   
    29    14    29 1   
    30    14    30 1   
@<TRIPOS>SUBSTRUCTURE
     1 BW3         1 TEMP              0 ****  ****    0 ROOT
