@<TRIPOS>MOLECULE
BW4
   78    82     1     0     0
SMALL
bcc


@<TRIPOS>ATOM
      1 C2           0.8720    -0.2800    -0.8160 cp         1 BW4       0.750500
      2 C4           0.2390    -2.4510    -0.8920 ca         1 BW4       0.558800
      3 C5          -1.0650    -2.1310    -0.5530 ca         1 BW4      -0.349900
      4 C6          -1.2930    -0.7500    -0.3070 ca         1 BW4       0.720200
      5 CBD         -9.9060     2.7830     1.7940 c3         1 BW4       0.147700
      6 OBC         -8.7180     2.0250     1.5940 os         1 BW4      -0.433900
      7 OBB         -8.8110     2.4830    -0.5990 o          1 BW4      -0.594000
      8 NAX         -7.1390     1.1970     0.2520 n          1 BW4      -0.475800
      9 CAY         -6.4930     0.9950    -1.0320 c6         1 BW4       0.110000
     10 CAZ         -5.0520     1.4840    -0.9950 c6         1 BW4      -0.084900
     11 CAW         -6.4610     0.5610     1.3690 c6         1 BW4       0.110000
     12 CAV         -5.0160     1.0360     1.4580 c6         1 BW4      -0.084900
     13 CAT         -4.2810     0.8320     0.1410 cy         1 BW4      -0.092000
     14 CAU         -2.7790     1.1780     0.1870 cy         1 BW4       0.226300
     15 CAS         -3.8660    -0.6380    -0.1200 cy         1 BW4       0.226300
     16 NAR         -2.4740    -0.2410     0.0820 nn         1 BW4      -0.783300
     17 N1          -0.3100     0.1450    -0.4120 nb         1 BW4      -0.773000
     18 CBF         -2.1610    -3.1450    -0.4310 c3         1 BW4      -0.029800
     19 CBI          0.6910    -3.8290    -1.1220 cc         1 BW4      -0.422100
     20 CBJ          0.6640    -4.8990    -0.2870 cd         1 BW4       0.322000
     21 CBK          0.1530    -5.0930     1.0880 c3         1 BW4      -0.140400
     22 OBL          1.2550    -5.9340    -0.8860 os         1 BW4      -0.119100
     23 NBM          1.6890    -5.5680    -2.1300 nd         1 BW4      -0.371300
     24 CBN          1.3710    -4.3170    -2.2770 cc         1 BW4       0.380600
     25 CBO          1.6950    -3.5740    -3.5220 c3         1 BW4      -0.135400
     26 N3           1.2050    -1.5300    -1.0570 nb         1 BW4      -0.729000
     27 CAM          1.9380     0.7410    -0.9760 cp         1 BW4      -0.089500
     28 CAN          3.1910     0.4740    -0.4420 ca         1 BW4      -0.119000
     29 CAK          1.7400     1.9600    -1.6310 ca         1 BW4       0.025400
     30 CLAL         0.2490     2.3390    -2.4310 cl         1 BW4      -0.105400
     31 CAJ          2.7710     2.8770    -1.7220 ca         1 BW4      -0.097000
     32 CAI          4.0120     2.6140    -1.1620 ca         1 BW4      -0.203000
     33 CAH          4.2310     1.3990    -0.5190 ca         1 BW4       0.138100
     34 OAG          5.3950     1.0340     0.0460 os         1 BW4      -0.298900
     35 CAF          6.4560     1.9690     0.0750 c3         1 BW4       0.104400
     36 CAD          7.6240     1.3430     0.8210 c3         1 BW4       0.147100
     37 OAE          7.2620     0.9450     2.1200 oh         1 BW4      -0.561800
     38 CAC          8.8030     2.3100     0.8010 c3         1 BW4       0.120800
     39 NAB          9.9720     1.7460     1.4370 n7         1 BW4      -0.792200
     40 CAA         11.0810     2.6770     1.4730 c3         1 BW4       0.142100
     41 H1         -10.1110     2.7330     2.8600 h1         1 BW4       0.048033
     42 H2          -9.7760     3.8250     1.5050 h1         1 BW4       0.048033
     43 H3         -10.7510     2.3630     1.2490 h1         1 BW4       0.048033
     44 H4          -6.5160    -0.0740    -1.2760 h1         1 BW4       0.058950
     45 H5          -7.0510     1.5100    -1.8080 h1         1 BW4       0.058950
     46 H6          -4.5750     1.2640    -1.9530 hc         1 BW4       0.059700
     47 H7          -5.0350     2.5710    -0.8680 hc         1 BW4       0.059700
     48 H8          -6.9780     0.7680     2.3000 h1         1 BW4       0.058950
     49 H9          -6.4890    -0.5250     1.2240 h1         1 BW4       0.058950
     50 H10         -4.9980     2.0980     1.7200 hc         1 BW4       0.059700
     51 H11         -4.5130     0.4980     2.2660 hc         1 BW4       0.059700
     52 H12         -2.4200     1.7620    -0.6640 h1         1 BW4       0.061950
     53 H13         -2.4210     1.6460     1.1070 h1         1 BW4       0.061950
     54 H14         -4.2380    -1.3770     0.5930 h1         1 BW4       0.061950
     55 H15         -4.0840    -0.9870    -1.1330 h1         1 BW4       0.061950
     56 H16         -2.5380    -3.2090     0.5910 hc         1 BW4       0.041700
     57 H17         -3.0050    -2.9040    -1.0750 hc         1 BW4       0.041700
     58 H18         -1.8230    -4.1360    -0.7210 hc         1 BW4       0.041700
     59 H19         -0.7080    -5.7620     1.0990 hc         1 BW4       0.064700
     60 H20          0.9190    -5.5220     1.7340 hc         1 BW4       0.064700
     61 H21         -0.1550    -4.1390     1.5100 hc         1 BW4       0.064700
     62 H22          0.7920    -3.1520    -3.9630 hc         1 BW4       0.061033
     63 H23          2.3660    -2.7450    -3.3050 hc         1 BW4       0.061033
     64 H24          2.1660    -4.2270    -4.2540 hc         1 BW4       0.061033
     65 H25          3.3590    -0.4720     0.0570 ha         1 BW4       0.167000
     66 H26          2.6160     3.8130    -2.2420 ha         1 BW4       0.144000
     67 H27          4.7860     3.3620    -1.2540 ha         1 BW4       0.137000
     68 H28          6.7680     2.2350    -0.9410 h1         1 BW4       0.035700
     69 H29          6.1430     2.8930     0.5790 h1         1 BW4       0.035700
     70 H30          7.9140     0.4250     0.2950 h1         1 BW4       0.084700
     71 H31          7.2090     1.7300     2.6760 ho         1 BW4       0.402000
     72 H32          8.9870     2.6200    -0.2400 h1         1 BW4       0.032700
     73 H33          8.5230     3.2230     1.3420 h1         1 BW4       0.032700
     74 H34         10.2550     0.9160     0.9300 hn         1 BW4       0.358800
     75 H36         11.9500     2.2010     1.9290 h1         1 BW4       0.031700
     76 H37         11.3840     3.0590     0.4880 h1         1 BW4       0.031700
     77 H38         10.8180     3.5400     2.0890 h1         1 BW4       0.031700
     78 CBA         -8.2590     1.9420     0.3420 c          1 BW4       0.762100
@<TRIPOS>BOND
     1     1    17 ar  
     2     1    26 ar  
     3     1    27 1   
     4     2     3 ar  
     5     2    19 1   
     6     2    26 ar  
     7     3     4 ar  
     8     3    18 1   
     9     4    16 1   
    10     4    17 ar  
    11     5     6 1   
    12     5    41 1   
    13     5    42 1   
    14     5    43 1   
    15     6    78 1   
    16     7    78 2   
    17     8     9 1   
    18     8    11 1   
    19     8    78 1   
    20     9    10 1   
    21     9    44 1   
    22     9    45 1   
    23    10    13 1   
    24    10    46 1   
    25    10    47 1   
    26    11    12 1   
    27    11    48 1   
    28    11    49 1   
    29    12    13 1   
    30    12    50 1   
    31    12    51 1   
    32    13    14 1   
    33    13    15 1   
    34    14    16 1   
    35    14    52 1   
    36    14    53 1   
    37    15    16 1   
    38    15    54 1   
    39    15    55 1   
    40    18    56 1   
    41    18    57 1   
    42    18    58 1   
    43    19    20 2   
    44    19    24 1   
    45    20    21 1   
    46    20    22 1   
    47    21    59 1   
    48    21    60 1   
    49    21    61 1   
    50    22    23 1   
    51    23    24 2   
    52    24    25 1   
    53    25    62 1   
    54    25    63 1   
    55    25    64 1   
    56    27    28 ar  
    57    27    29 ar  
    58    28    33 ar  
    59    28    65 1   
    60    29    30 1   
    61    29    31 ar  
    62    31    32 ar  
    63    31    66 1   
    64    32    33 ar  
    65    32    67 1   
    66    33    34 1   
    67    34    35 1   
    68    35    36 1   
    69    35    68 1   
    70    35    69 1   
    71    36    37 1   
    72    36    38 1   
    73    36    70 1   
    74    37    71 1   
    75    38    39 1   
    76    38    72 1   
    77    38    73 1   
    78    39    40 1   
    79    39    74 1   
    80    40    75 1   
    81    40    76 1   
    82    40    77 1   
@<TRIPOS>SUBSTRUCTURE
     1 BW4         1 TEMP              0 ****  ****    0 ROOT
