@<TRIPOS>MOLECULE
BW4
   78    82     1     0     0
SMALL
No Charge or Current Charge


@<TRIPOS>ATOM
      1 C2           0.8850     0.0590    -1.2490 cp         1 BW4       0.224500
      2 C4           0.1390    -2.1290    -1.1730 ca         1 BW4       0.230500
      3 C5          -1.1900    -1.6750    -0.9710 ca         1 BW4      -0.219300
      4 C6          -1.3760    -0.2710    -0.8960 ca         1 BW4       0.391900
      5 CBD        -10.3170     0.9300     2.4420 c3         1 BW4       0.170900
      6 OBC         -8.9680     1.1690     2.0010 os         1 BW4      -0.457100
      7 OBB         -9.4450     0.4010    -0.1040 o          1 BW4      -0.545000
      8 NAX         -7.3050     1.1420     0.3980 n          1 BW4      -0.408800
      9 CAY         -6.7440     0.6410    -0.8950 c6         1 BW4       0.110000
     10 CAZ         -5.4070     1.2810    -1.3350 c6         1 BW4      -0.084900
     11 CAW         -6.3240     1.4850     1.4790 c6         1 BW4       0.110000
     12 CAV         -4.9960     2.1130     0.9970 c6         1 BW4      -0.084900
     13 CAT         -4.3770     1.3240    -0.1780 cy         1 BW4      -0.092000
     14 CAU         -2.9440     1.7830    -0.6050 cy         1 BW4       0.226300
     15 CAS         -3.7480    -0.0610     0.2000 cy         1 BW4       0.226300
     16 NAR         -2.6050     0.3270    -0.6850 nn         1 BW4      -0.783300
     17 N1          -0.3380     0.5720    -1.0380 nb         1 BW4      -0.247000
     18 CBF         -2.3740    -2.6480    -0.9550 c3         1 BW4      -0.029800
     19 CBI          0.5180    -3.5400    -1.1610 cc         1 BW4      -0.291500
     20 CBJ          0.2670    -4.3790    -0.1200 cd         1 BW4       0.212300
     21 CBK         -0.4250    -4.1700     1.2000 c3         1 BW4      -0.140400
     22 OBL          0.8800    -5.5840    -0.3510 os         1 BW4      -0.074700
     23 NBM          1.6210    -5.4930    -1.5830 nd         1 BW4      -0.371300
     24 CBN          1.3900    -4.2600    -1.9990 cc         1 BW4       0.315300
     25 CBO          1.9960    -3.6880    -3.2480 c3         1 BW4      -0.135400
     26 N3           1.1560    -1.2570    -1.2990 nb         1 BW4      -0.203000
     27 CAM          2.0550     1.0010    -1.2970 cp         1 BW4      -0.089500
     28 CAN          3.2740     0.6340    -0.6600 ca         1 BW4      -0.101000
     29 CAK          2.0190     2.2630    -1.9630 ca         1 BW4       0.117000
     30 ClAL         0.6140     2.8280    -2.8730 cl         1 BW4      -0.197000
     31 CAJ          3.1460     3.1040    -1.9640 ca         1 BW4      -0.079000
     32 CAI          4.3310     2.7200    -1.3160 ca         1 BW4      -0.185000
     33 CAH          4.3970     1.4750    -0.6610 ca         1 BW4       0.138100
     34 OAG          5.5330     1.0370    -0.0110 os         1 BW4      -0.322100
     35 CAF          6.7380     1.8260     0.0480 c3         1 BW4       0.127600
     36 CAD          7.8130     1.0420     0.8450 c3         1 BW4       0.170300
     37 OAE          7.4420     0.8910     2.2240 oh         1 BW4      -0.624000
     38 CAC          9.1960     1.7440     0.8290 c3         1 BW4       0.120800
     39 NAB         10.0800     1.1860     1.8880 n7         1 BW4      -0.847400
     40 CAA         11.3480     1.9160     2.0880 c3         1 BW4       0.142100
     41 H1         -10.4320     1.2180     3.4940 h1         1 BW4       0.048033
     42 H2         -11.0320     1.5170     1.8500 h1         1 BW4       0.048033
     43 H3         -10.5780    -0.1320     2.3490 h1         1 BW4       0.048033
     44 H4          -6.6030    -0.4450    -0.8040 h1         1 BW4       0.058950
     45 H5          -7.4790     0.7970    -1.6970 h1         1 BW4       0.058950
     46 H6          -5.0040     0.7300    -2.1960 hc         1 BW4       0.059700
     47 H7          -5.6000     2.3020    -1.6900 hc         1 BW4       0.059700
     48 H8          -6.7830     2.1860     2.1910 h1         1 BW4       0.058950
     49 H9          -6.0990     0.5650     2.0380 h1         1 BW4       0.058950
     50 H10         -5.1840     3.1490     0.6820 hc         1 BW4       0.059700
     51 H11         -4.2920     2.1730     1.8380 hc         1 BW4       0.059700
     52 H12         -2.9120     2.3360    -1.5520 h1         1 BW4       0.061950
     53 H13         -2.4020     2.3340     0.1730 h1         1 BW4       0.061950
     54 H14         -3.4870    -0.1580     1.2610 h1         1 BW4       0.061950
     55 H15         -4.3520    -0.9180    -0.1200 h1         1 BW4       0.061950
     56 H16         -2.7690    -2.7790     0.0600 hc         1 BW4       0.041700
     57 H17         -3.1900    -2.2840    -1.5900 hc         1 BW4       0.041700
     58 H18         -2.1120    -3.6390    -1.3420 hc         1 BW4       0.041700
     59 H19         -1.4360    -4.5920     1.1820 hc         1 BW4       0.064700
     60 H20          0.1270    -4.6600     2.0100 hc         1 BW4       0.064700
     61 H21         -0.5010    -3.1060     1.4500 hc         1 BW4       0.064700
     62 H22          1.2630    -3.0860    -3.7970 hc         1 BW4       0.061033
     63 H23          2.8510    -3.0460    -3.0030 hc         1 BW4       0.061033
     64 H24          2.3480    -4.4820    -3.9160 hc         1 BW4       0.061033
     65 H25          3.3480    -0.3180    -0.1390 ha         1 BW4       0.149000
     66 H26          3.1020     4.0590    -2.4820 ha         1 BW4       0.126000
     67 H27          5.1820     3.3950    -1.3390 ha         1 BW4       0.119000
     68 H28          7.1150     2.0190    -0.9650 h1         1 BW4       0.035700
     69 H29          6.5500     2.7900     0.5380 h1         1 BW4       0.035700
     70 H30          7.9330     0.0540     0.3800 h1         1 BW4       0.084700
     71 H31          8.3150     0.9680     2.6820 ho         1 BW4       0.441000
     72 H32          9.6530     1.6310    -0.1640 h1         1 BW4       0.032700
     73 H33          9.0420     2.8190     1.0010 h1         1 BW4       0.032700
     74 H34         10.3150     0.2140     1.6380 hn         1 BW4       0.414000
     75 H36         11.9390     1.4490     2.8880 h1         1 BW4       0.031700
     76 H37         11.9510     1.9120     1.1710 h1         1 BW4       0.031700
     77 H38         11.1580     2.9600     2.3710 h1         1 BW4       0.031700
     78 CBA         -8.6520     0.8630     0.7050 c          1 BW4       0.646100
@<TRIPOS>BOND
     1     1    17 ar  
     2     1    26 ar  
     3     1    27 1   
     4     2     3 ar  
     5     2    19 1   
     6     2    26 ar  
     7     3     4 ar  
     8     3    18 1   
     9     4    16 1   
    10     4    17 ar  
    11     5     6 1   
    12     5    41 1   
    13     5    42 1   
    14     5    43 1   
    15     6    78 1   
    16     7    78 2   
    17     8     9 1   
    18     8    11 1   
    19     8    78 1   
    20     9    10 1   
    21     9    44 1   
    22     9    45 1   
    23    10    13 1   
    24    10    46 1   
    25    10    47 1   
    26    11    12 1   
    27    11    48 1   
    28    11    49 1   
    29    12    13 1   
    30    12    50 1   
    31    12    51 1   
    32    13    14 1   
    33    13    15 1   
    34    14    16 1   
    35    14    52 1   
    36    14    53 1   
    37    15    16 1   
    38    15    54 1   
    39    15    55 1   
    40    18    56 1   
    41    18    57 1   
    42    18    58 1   
    43    19    20 2   
    44    19    24 1   
    45    20    21 1   
    46    20    22 1   
    47    21    59 1   
    48    21    60 1   
    49    21    61 1   
    50    22    23 1   
    51    23    24 2   
    52    24    25 1   
    53    25    62 1   
    54    25    63 1   
    55    25    64 1   
    56    27    28 ar  
    57    27    29 ar  
    58    28    33 ar  
    59    28    65 1   
    60    29    30 1   
    61    29    31 ar  
    62    31    32 ar  
    63    31    66 1   
    64    32    33 ar  
    65    32    67 1   
    66    33    34 1   
    67    34    35 1   
    68    35    36 1   
    69    35    68 1   
    70    35    69 1   
    71    36    37 1   
    72    36    38 1   
    73    36    70 1   
    74    37    71 1   
    75    38    39 1   
    76    38    72 1   
    77    38    73 1   
    78    39    40 1   
    79    39    74 1   
    80    40    75 1   
    81    40    76 1   
    82    40    77 1   
@<TRIPOS>SUBSTRUCTURE
     1 BW4         1 TEMP              0 ****  ****    0 ROOT
