@<TRIPOS>MOLECULE
BW5
   36    38     1     0     0
SMALL
abcg2


@<TRIPOS>ATOM
      1 C1          15.4810   -30.5040    21.2610 c6         1 BW5      -0.036000
      2 C2          16.8520   -30.9530    20.7350 c6         1 BW5      -0.062400
      3 C3          17.6290   -29.7630    20.1660 c6         1 BW5      -0.061033
      4 C4          17.8390   -28.7210    21.2670 c6         1 BW5      -0.063733
      5 C5          16.4800   -28.2440    21.7820 c6         1 BW5      -0.061033
      6 C6          15.7010   -29.4350    22.3430 c6         1 BW5      -0.062400
      7 N           16.0210   -33.6170    22.3170 n8         1 BW5      -1.000200
      8 CA          15.2230   -32.5470    22.9030 c3         1 BW5       0.012500
      9 C           14.0760   -33.0300    23.8300 c          1 BW5       0.690000
     10 CB          14.6270   -31.6610    21.7960 c3         1 BW5      -0.039400
     11 C9          14.7160   -29.8480    20.1000 c6         1 BW5      -0.062400
     12 C8          15.4850   -28.6550    19.5300 c6         1 BW5      -0.061033
     13 C7          15.6940   -27.6140    20.6310 c6         1 BW5      -0.063733
     14 C10         16.8430   -29.1340    19.0150 c6         1 BW5      -0.063733
     15 H3          16.7150   -31.7180    19.9640 hc         1 BW5       0.045033
     16 H4          17.4270   -31.4220    21.5380 hc         1 BW5       0.045033
     17 H9          18.4230   -29.1510    22.0880 hc         1 BW5       0.026867
     18 H8          18.4150   -27.8730    20.8820 hc         1 BW5       0.026867
     19 H1          16.6270   -27.5020    22.5730 hc         1 BW5       0.031700
     20 H11         14.7310   -29.1010    22.7310 hc         1 BW5       0.045033
     21 H10         16.2480   -29.8590    23.1920 hc         1 BW5       0.045033
     22 H6          18.6010   -30.1090    19.8010 hc         1 BW5       0.031700
     23 HA          15.8950   -31.9370    23.5160 h1         1 BW5       0.038700
     24 OXT         13.6640   -34.1980    23.6680 o          1 BW5      -0.735000
     25 HB2         13.6910   -31.2170    22.1490 hc         1 BW5       0.038700
     26 HB3         14.3500   -32.3100    20.9550 hc         1 BW5       0.038700
     27 H14         13.7280   -29.5260    20.4490 hc         1 BW5       0.045033
     28 H15         14.5460   -30.5910    19.3130 hc         1 BW5       0.045033
     29 H2          14.9120   -28.2140    18.7080 hc         1 BW5       0.031700
     30 H12         16.2350   -26.7470    20.2370 hc         1 BW5       0.026867
     31 H13         14.7270   -27.2470    20.9910 hc         1 BW5       0.026867
     32 H16         16.7030   -29.8670    18.2140 hc         1 BW5       0.026867
     33 H17         17.4040   -28.2970    18.5870 hc         1 BW5       0.026867
     34 H           16.5080   -34.1020    23.0620 hn         1 BW5       0.380500
     35 O           13.6380   -32.1910    24.6460 o          1 BW5      -0.735000
     36 HN2         15.3730   -34.3090    21.9540 hn         1 BW5       0.380500
@<TRIPOS>BOND
     1     1     2 1   
     2     1     6 1   
     3     1    10 1   
     4     1    11 1   
     5     2     3 1   
     6     2    15 1   
     7     2    16 1   
     8     3     4 1   
     9     3    14 1   
    10     3    22 1   
    11     4     5 1   
    12     4    17 1   
    13     4    18 1   
    14     5     6 1   
    15     5    13 1   
    16     5    19 1   
    17     6    20 1   
    18     6    21 1   
    19     7     8 1   
    20     7    34 1   
    21     7    36 1   
    22     8     9 1   
    23     8    10 1   
    24     8    23 1   
    25     9    24 1   
    26     9    35 1   
    27    10    25 1   
    28    10    26 1   
    29    11    12 1   
    30    11    27 1   
    31    11    28 1   
    32    12    13 1   
    33    12    14 1   
    34    12    29 1   
    35    13    30 1   
    36    13    31 1   
    37    14    32 1   
    38    14    33 1   
@<TRIPOS>SUBSTRUCTURE
     1 BW5         1 TEMP              0 ****  ****    0 ROOT
