@<TRIPOS>MOLECULE
BW5
   36    38     1     0     0
SMALL
No Charge or Current Charge


@<TRIPOS>ATOM
      1 C1          15.4700   -30.5000    21.2410 c6         1 BW5      -0.036000
      2 C2          16.8750   -30.9680    20.7150 c6         1 BW5      -0.062400
      3 C3          17.6920   -29.7700    20.1470 c6         1 BW5      -0.061033
      4 C4          17.8810   -28.7000    21.2610 c6         1 BW5      -0.063733
      5 C5          16.4910   -28.2050    21.7700 c6         1 BW5      -0.061033
      6 C6          15.6960   -29.4120    22.3460 c6         1 BW5      -0.062400
      7 N           16.1050   -33.6500    22.4320 n8         1 BW5      -1.000200
      8 CA          15.1800   -32.5740    22.9510 c3         1 BW5       0.012500
      9 C           13.9990   -33.0830    23.8780 c          1 BW5       0.690000
     10 CB          14.6080   -31.6990    21.7880 c3         1 BW5      -0.039400
     11 C9          14.6780   -29.8260    20.0600 c6         1 BW5      -0.062400
     12 C8          15.4480   -28.6060    19.4780 c6         1 BW5      -0.061033
     13 C7          15.6820   -27.5600    20.6030 c6         1 BW5      -0.063733
     14 C10         16.8560   -29.1150    18.9790 c6         1 BW5      -0.063733
     15 H3          16.7520   -31.7360    19.9400 hc         1 BW5       0.045033
     16 H4          17.4510   -31.4340    21.5250 hc         1 BW5       0.045033
     17 H9          18.4620   -29.1210    22.0940 hc         1 BW5       0.026867
     18 H8          18.4650   -27.8520    20.8750 hc         1 BW5       0.026867
     19 H1          16.6410   -27.4580    22.5620 hc         1 BW5       0.031700
     20 H11         14.7310   -29.0660    22.7430 hc         1 BW5       0.045033
     21 H10         16.2470   -29.8290    23.1980 hc         1 BW5       0.045033
     22 H6          18.6670   -30.1130    19.7750 hc         1 BW5       0.031700
     23 HA          15.7900   -31.9250    23.5910 h1         1 BW5       0.038700
     24 OXT         13.2810   -33.9860    23.4650 o          1 BW5      -0.735000
     25 HB2         13.6530   -31.2850    22.1340 hc         1 BW5       0.038700
     26 HB3         14.3370   -32.3660    20.9600 hc         1 BW5       0.038700
     27 H14         13.6860   -29.5010    20.4040 hc         1 BW5       0.045033
     28 H15         14.4970   -30.5590    19.2610 hc         1 BW5       0.045033
     29 H2          14.8860   -28.1580    18.6470 hc         1 BW5       0.031700
     30 H12         16.2220   -26.6900    20.2050 hc         1 BW5       0.026867
     31 H13         14.7180   -27.1830    20.9740 hc         1 BW5       0.026867
     32 H16         16.7220   -29.8430    18.1660 hc         1 BW5       0.026867
     33 H17         17.4200   -28.2790    18.5430 hc         1 BW5       0.026867
     34 H           16.4870   -34.1740    23.2280 hn         1 BW5       0.380500
     35 O           13.9170   -32.6340    25.0130 o          1 BW5      -0.735000
     36 HN2         15.5370   -34.3530    21.9430 hn         1 BW5       0.380500
@<TRIPOS>BOND
     1     1     2 1   
     2     1     6 1   
     3     1    10 1   
     4     1    11 1   
     5     2     3 1   
     6     2    15 1   
     7     2    16 1   
     8     3     4 1   
     9     3    14 1   
    10     3    22 1   
    11     4     5 1   
    12     4    17 1   
    13     4    18 1   
    14     5     6 1   
    15     5    13 1   
    16     5    19 1   
    17     6    20 1   
    18     6    21 1   
    19     7     8 1   
    20     7    34 1   
    21     7    36 1   
    22     8     9 1   
    23     8    10 1   
    24     8    23 1   
    25     9    24 1   
    26     9    35 1   
    27    10    25 1   
    28    10    26 1   
    29    11    12 1   
    30    11    27 1   
    31    11    28 1   
    32    12    13 1   
    33    12    14 1   
    34    12    29 1   
    35    13    30 1   
    36    13    31 1   
    37    14    32 1   
    38    14    33 1   
@<TRIPOS>SUBSTRUCTURE
     1 BW5         1 TEMP              0 ****  ****    0 ROOT
