@<TRIPOS>MOLECULE
BW6
   40    43     1     0     0
SMALL
No Charge or Current Charge


@<TRIPOS>ATOM
      1 C12          2.6190    -3.0390     0.9670 c3         1 BW6       0.081300
      2 C14          1.2380     2.4550     0.1960 cx         1 BW6       0.134500
      3 C15         -3.3120    -0.2570    -0.1120 cc         1 BW6      -0.130000
      4 C16          0.5580     2.9280     1.4590 cx         1 BW6      -0.122900
      5 C18         -3.8150     1.0100     0.0170 cd         1 BW6      -0.158000
      6 C19         -5.2130     0.9420    -0.1490 cd         1 BW6      -0.182000
      7 C20         -5.5830    -0.3590    -0.3710 cc         1 BW6      -0.193000
      8 C01         -1.5200    -1.9600     0.1900 ca         1 BW6      -0.129000
      9 C02         -1.8930    -0.6140     0.0280 ca         1 BW6       0.008000
     10 C03         -0.8780     0.3600    -0.0380 ca         1 BW6      -0.131000
     11 C04          0.4840     0.0170     0.0940 ca         1 BW6       0.273000
     12 C05          0.8440    -1.3380     0.3420 ca         1 BW6      -0.070000
     13 C06         -0.1710    -2.3210     0.3210 ca         1 BW6      -0.117000
     14 C08          2.8010     0.5370    -0.5720 c6         1 BW6       0.141500
     15 C09          3.2670    -0.8460    -0.0290 c          1 BW6       0.572000
     16 C13          2.7260     0.4830    -2.1230 c3         1 BW6      -0.119100
     17 C17          2.0260     3.1980     1.2470 cx         1 BW6      -0.122900
     18 N07          1.4890     1.0200    -0.0380 nh         1 BW6      -0.767400
     19 N10          2.2400    -1.7320     0.3760 n          1 BW6      -0.204400
     20 N21         -4.3990    -1.1030    -0.3360 na         1 BW6      -0.101000
     21 O11          4.4600    -1.1290     0.0550 o          1 BW6      -0.545000
     22 H1           2.5870    -3.8150     0.1920 h1         1 BW6       0.049700
     23 H2           3.6280    -3.0030     1.3960 h1         1 BW6       0.049700
     24 H3           1.9230    -3.3020     1.7730 h1         1 BW6       0.049700
     25 H4           1.0120     3.0100    -0.7170 h1         1 BW6       0.070700
     26 H5          -0.1320     3.7640     1.3750 hc         1 BW6       0.080200
     27 H6           0.2820     2.1810     2.1990 hc         1 BW6       0.080200
     28 H7          -3.2520     1.9150     0.2230 ha         1 BW6       0.130000
     29 H8          -5.8950     1.7880    -0.1030 ha         1 BW6       0.132000
     30 H9          -6.5560    -0.8060    -0.5390 h4         1 BW6       0.144000
     31 H10         -2.2760    -2.7410     0.2120 ha         1 BW6       0.107000
     32 H11         -1.1440     1.3910    -0.2320 ha         1 BW6       0.127000
     33 H12          0.0700    -3.3770     0.4150 ha         1 BW6       0.118000
     34 H13          3.5990     1.2400    -0.2920 h1         1 BW6       0.092700
     35 H14          1.9710    -0.2360    -2.4620 hc         1 BW6       0.050033
     36 H15          2.4670     1.4640    -2.5400 hc         1 BW6       0.050033
     37 H16          3.6890     0.1850    -2.5530 hc         1 BW6       0.050033
     38 H17          2.7340     2.6320     1.8460 hc         1 BW6       0.080200
     39 H18          2.3290     4.2170     1.0210 hc         1 BW6       0.080200
     40 H19         -4.3380    -2.1090    -0.4630 hn         1 BW6       0.342000
@<TRIPOS>BOND
     1     1    19 1   
     2     1    22 1   
     3     1    23 1   
     4     1    24 1   
     5     2     4 1   
     6     2    17 1   
     7     2    18 1   
     8     2    25 1   
     9     3     5 2   
    10     3     9 1   
    11     3    20 1   
    12     4    17 1   
    13     4    26 1   
    14     4    27 1   
    15     5     6 1   
    16     5    28 1   
    17     6     7 2   
    18     6    29 1   
    19     7    20 1   
    20     7    30 1   
    21     8     9 ar  
    22     8    13 ar  
    23     8    31 1   
    24     9    10 ar  
    25    10    11 ar  
    26    10    32 1   
    27    11    12 ar  
    28    11    18 1   
    29    12    13 ar  
    30    12    19 1   
    31    13    33 1   
    32    14    15 1   
    33    14    16 1   
    34    14    18 1   
    35    14    34 1   
    36    15    19 1   
    37    15    21 2   
    38    16    35 1   
    39    16    36 1   
    40    16    37 1   
    41    17    38 1   
    42    17    39 1   
    43    20    40 1   
@<TRIPOS>SUBSTRUCTURE
     1 BW6         1 TEMP              0 ****  ****    0 ROOT
