@<TRIPOS>MOLECULE
BW6
   40    43     1     0     0
SMALL
abcg2


@<TRIPOS>ATOM
      1 C12          2.5230    -3.0230     0.9050 c3         1 BW6       0.081300
      2 C14          1.2150     2.3250     0.1580 cx         1 BW6       0.134500
      3 C15         -3.2480    -0.1850    -0.0660 cc         1 BW6      -0.130000
      4 C16          0.6360     2.9700     1.3770 cx         1 BW6      -0.122900
      5 C18         -3.8430     1.0200     0.2510 cd         1 BW6      -0.158000
      6 C19         -5.2290     0.8960    -0.0040 cd         1 BW6      -0.182000
      7 C20         -5.4400    -0.3790    -0.4700 cc         1 BW6      -0.193000
      8 C01         -1.4910    -1.9440     0.1110 ca         1 BW6      -0.129000
      9 C02         -1.8550    -0.6030     0.0320 ca         1 BW6       0.008000
     10 C03         -0.8450     0.3630     0.0460 ca         1 BW6      -0.131000
     11 C04          0.4930     0.0140     0.1710 ca         1 BW6       0.273000
     12 C05          0.8440    -1.3460     0.2580 ca         1 BW6      -0.070000
     13 C06         -0.1550    -2.3070     0.2140 ca         1 BW6      -0.117000
     14 C08          2.7480     0.5170    -0.4330 c6         1 BW6       0.141500
     15 C09          3.1910    -0.8240     0.1170 c          1 BW6       0.572000
     16 C13          2.6490     0.4550    -1.9600 c3         1 BW6      -0.119100
     17 C17          2.0510     3.2550     0.9780 cx         1 BW6      -0.122900
     18 N07          1.5240     0.9350     0.2240 nh         1 BW6      -0.767400
     19 N10          2.1930    -1.6880     0.4400 n          1 BW6      -0.204400
     20 N21         -4.2420    -1.0170    -0.4960 na         1 BW6      -0.101000
     21 O11          4.3730    -1.1030     0.2180 o          1 BW6      -0.545000
     22 H1           2.3780    -3.7650     0.1190 h1         1 BW6       0.049700
     23 H2           3.5600    -3.0500     1.2180 h1         1 BW6       0.049700
     24 H3           1.8950    -3.2860     1.7550 h1         1 BW6       0.049700
     25 H4           0.8690     2.6980    -0.8050 h1         1 BW6       0.070700
     26 H5          -0.1120     3.7390     1.2350 hc         1 BW6       0.080200
     27 H6           0.4780     2.3390     2.2410 hc         1 BW6       0.080200
     28 H7          -3.3400     1.8870     0.6500 ha         1 BW6       0.130000
     29 H8          -5.9860     1.6490     0.1440 ha         1 BW6       0.132000
     30 H9          -6.3430    -0.8760    -0.7850 h4         1 BW6       0.144000
     31 H10         -2.2370    -2.7280     0.1210 ha         1 BW6       0.107000
     32 H11         -1.1110     1.4070    -0.0510 ha         1 BW6       0.127000
     33 H12          0.0910    -3.3580     0.2780 ha         1 BW6       0.118000
     34 H13          3.5250     1.2310    -0.1610 h1         1 BW6       0.092700
     35 H14          1.8880    -0.2540    -2.2890 hc         1 BW6       0.050033
     36 H15          2.3950     1.4360    -2.3630 hc         1 BW6       0.050033
     37 H16          3.6030     0.1580    -2.3940 hc         1 BW6       0.050033
     38 H17          2.8380     2.8210     1.5810 hc         1 BW6       0.080200
     39 H18          2.2880     4.2220     0.5550 hc         1 BW6       0.080200
     40 H19         -4.1070    -1.9510    -0.8470 hn         1 BW6       0.342000
@<TRIPOS>BOND
     1     1    19 1   
     2     1    22 1   
     3     1    23 1   
     4     1    24 1   
     5     2     4 1   
     6     2    17 1   
     7     2    18 1   
     8     2    25 1   
     9     3     5 2   
    10     3     9 1   
    11     3    20 1   
    12     4    17 1   
    13     4    26 1   
    14     4    27 1   
    15     5     6 1   
    16     5    28 1   
    17     6     7 2   
    18     6    29 1   
    19     7    20 1   
    20     7    30 1   
    21     8     9 ar  
    22     8    13 ar  
    23     8    31 1   
    24     9    10 ar  
    25    10    11 ar  
    26    10    32 1   
    27    11    12 ar  
    28    11    18 1   
    29    12    13 ar  
    30    12    19 1   
    31    13    33 1   
    32    14    15 1   
    33    14    16 1   
    34    14    18 1   
    35    14    34 1   
    36    15    19 1   
    37    15    21 2   
    38    16    35 1   
    39    16    36 1   
    40    16    37 1   
    41    17    38 1   
    42    17    39 1   
    43    20    40 1   
@<TRIPOS>SUBSTRUCTURE
     1 BW6         1 TEMP              0 ****  ****    0 ROOT
