@<TRIPOS>MOLECULE
BW7
   59    62     1     0     0
SMALL
No Charge or Current Charge


@<TRIPOS>ATOM
      1 CAZ         -4.8520     1.1910     1.4990 c6         1 BW7       0.169300
      2 CBA         -6.3590     1.5670     1.3750 c6         1 BW7       0.145600
      3 OBB         -6.5170     2.8410     0.7050 os         1 BW7      -0.444000
      4 CBC         -5.9550     2.8400    -0.6290 c6         1 BW7       0.145600
      5 CBD         -4.4310     2.5160    -0.5860 c6         1 BW7       0.169300
      6 NAY         -4.1490     1.2580     0.1770 nh         1 BW7      -0.799400
      7 CAH         -2.9260     0.5860     0.0080 ca         1 BW7       0.419000
      8 CAI         -1.7190     1.2660    -0.1790 ca         1 BW7      -0.281000
      9 CAG         -2.8570    -0.7950     0.0230 ca         1 BW7      -0.309900
     10 CAF         -3.8850    -1.7860     0.1610 cc         1 BW7       0.362800
     11 NAE         -3.3940    -3.0300     0.1100 nd         1 BW7      -0.518100
     12 NAD         -2.0280    -2.7980    -0.0680 na         1 BW7      -0.028100
     13 CAB         -1.0380    -3.8930    -0.1840 c3         1 BW7       0.111300
     14 CAC         -0.9620    -4.7400     1.1050 c3         1 BW7      -0.103100
     15 CAA         -1.2900    -4.7680    -1.4320 c3         1 BW7      -0.103100
     16 CAL         -1.6820    -1.4550    -0.1300 ca         1 BW7       0.403500
     17 NAK         -0.5100    -0.8200    -0.3070 nb         1 BW7      -0.710000
     18 CAJ         -0.5160     0.5350    -0.3400 cp         1 BW7       0.476500
     19 CAM          0.8180     1.2120    -0.5400 cp         1 BW7      -0.115500
     20 CAX          2.0380     0.5430    -0.2390 ca         1 BW7      -0.101000
     21 CAN          0.9150     2.5370    -1.0450 ca         1 BW7      -0.130000
     22 CAO          2.1600     3.1610    -1.2280 ca         1 BW7      -0.083000
     23 CAP          3.3460     2.4790    -0.9160 ca         1 BW7      -0.191000
     24 CAQ          3.2860     1.1610    -0.4190 ca         1 BW7       0.133100
     25 OAR          4.4170     0.4390    -0.0950 os         1 BW7      -0.330100
     26 CAS          5.7450     0.9790    -0.2520 c3         1 BW7       0.129600
     27 CAT          6.7640    -0.0990     0.1960 c3         1 BW7       0.162300
     28 OAU          6.4580    -0.5350     1.5390 oh         1 BW7      -0.635000
     29 CAV          8.2290     0.4220     0.1230 c3         1 BW7       0.118800
     30 NAW          9.2310    -0.5940     0.5310 n8         1 BW7      -0.987200
     31 H1          -4.3740     1.8810     2.2100 h1         1 BW7       0.053700
     32 H2          -4.7790     0.1820     1.9290 h1         1 BW7       0.053700
     33 H3          -6.8910     0.7910     0.8060 h1         1 BW7       0.055450
     34 H4          -6.8120     1.6270     2.3750 h1         1 BW7       0.055450
     35 H5          -6.4770     2.0900    -1.2410 h1         1 BW7       0.055450
     36 H6          -6.1140     3.8250    -1.0890 h1         1 BW7       0.055450
     37 H7          -4.0640     2.4260    -1.6190 h1         1 BW7       0.053700
     38 H8          -3.9050     3.3650    -0.1230 h1         1 BW7       0.053700
     39 H9          -1.7070     2.3480    -0.1730 ha         1 BW7       0.123000
     40 H10         -4.9540    -1.6810     0.2890 h4         1 BW7       0.044800
     41 H11         -0.0510    -3.4290    -0.3170 h1         1 BW7       0.082700
     42 H12         -1.9110    -5.2570     1.2920 hc         1 BW7       0.047200
     43 H13         -0.1690    -5.4940     1.0260 hc         1 BW7       0.047200
     44 H14         -0.7400    -4.1030     1.9700 hc         1 BW7       0.047200
     45 H15         -1.2970    -4.1500    -2.3390 hc         1 BW7       0.047200
     46 H16         -0.5010    -5.5220    -1.5410 hc         1 BW7       0.047200
     47 H17         -2.2530    -5.2860    -1.3610 hc         1 BW7       0.047200
     48 H18          2.0200    -0.4720     0.1500 ha         1 BW7       0.149000
     49 H19          0.0190     3.0910    -1.3150 ha         1 BW7       0.114000
     50 H20          2.2040     4.1760    -1.6180 ha         1 BW7       0.111000
     51 H21          4.2940     2.9860    -1.0680 ha         1 BW7       0.114000
     52 H22          5.9340     1.2430    -1.3000 h1         1 BW7       0.035200
     53 H23          5.8710     1.8800     0.3630 h1         1 BW7       0.035200
     54 H24          6.6740    -0.9420    -0.5040 h1         1 BW7       0.104700
     55 H25          5.4790    -0.6090     1.5800 ho         1 BW7       0.432000
     56 H26          8.4580     0.7480    -0.9010 h1         1 BW7       0.029700
     57 H27          8.3310     1.2930     0.7870 h1         1 BW7       0.029700
     58 H28         10.1390    -0.1360     0.6780 hn         1 BW7       0.399500
     59 H29          8.9730    -0.9290     1.4680 hn         1 BW7       0.399500
@<TRIPOS>BOND
     1     1     2 1   
     2     1     6 1   
     3     1    31 1   
     4     1    32 1   
     5     2     3 1   
     6     2    33 1   
     7     2    34 1   
     8     3     4 1   
     9     4     5 1   
    10     4    35 1   
    11     4    36 1   
    12     5     6 1   
    13     5    37 1   
    14     5    38 1   
    15     6     7 1   
    16     7     8 ar  
    17     7     9 ar  
    18     8    18 ar  
    19     8    39 1   
    20     9    10 1   
    21     9    16 ar  
    22    10    11 2   
    23    10    40 1   
    24    11    12 1   
    25    12    13 1   
    26    12    16 1   
    27    13    14 1   
    28    13    15 1   
    29    13    41 1   
    30    14    42 1   
    31    14    43 1   
    32    14    44 1   
    33    15    45 1   
    34    15    46 1   
    35    15    47 1   
    36    16    17 ar  
    37    17    18 ar  
    38    18    19 1   
    39    19    20 ar  
    40    19    21 ar  
    41    20    24 ar  
    42    20    48 1   
    43    21    22 ar  
    44    21    49 1   
    45    22    23 ar  
    46    22    50 1   
    47    23    24 ar  
    48    23    51 1   
    49    24    25 1   
    50    25    26 1   
    51    26    27 1   
    52    26    52 1   
    53    26    53 1   
    54    27    28 1   
    55    27    29 1   
    56    27    54 1   
    57    28    55 1   
    58    29    30 1   
    59    29    56 1   
    60    29    57 1   
    61    30    58 1   
    62    30    59 1   
@<TRIPOS>SUBSTRUCTURE
     1 BW7         1 TEMP              0 ****  ****    0 ROOT
