@<TRIPOS>MOLECULE
BW7
   59    62     1     0     0
SMALL
abcg2


@<TRIPOS>ATOM
      1 CAZ         -5.0450     0.9790     1.2560 c6         1 BW7       0.169300
      2 CBA         -6.4290     1.4750     0.8890 c6         1 BW7       0.145600
      3 OBB         -6.4220     2.8580     0.6200 os         1 BW7      -0.444000
      4 CBC         -5.5320     3.1570    -0.4300 c6         1 BW7       0.145600
      5 CBD         -4.1100     2.7190    -0.1210 c6         1 BW7       0.169300
      6 NAY         -4.1000     1.3020     0.1950 nh         1 BW7      -0.799400
      7 CAH         -2.9420     0.5860     0.0640 ca         1 BW7       0.419000
      8 CAI         -1.7090     1.1860    -0.1930 ca         1 BW7      -0.281000
      9 CAG         -2.9150    -0.8280     0.1440 ca         1 BW7      -0.309900
     10 CAF         -3.8230    -1.9070     0.2930 cc         1 BW7       0.362800
     11 NAE         -3.1950    -3.0550     0.2390 nd         1 BW7      -0.518100
     12 NAD         -1.8980    -2.7920     0.0560 na         1 BW7      -0.028100
     13 CAB         -0.9250    -3.8660    -0.0680 c3         1 BW7       0.111300
     14 CAC         -0.9380    -4.7480     1.1720 c3         1 BW7      -0.103100
     15 CAA         -1.1600    -4.6630    -1.3430 c3         1 BW7      -0.103100
     16 CAL         -1.6720    -1.4610    -0.0250 ca         1 BW7       0.403500
     17 NAK         -0.4970    -0.8920    -0.2680 nb         1 BW7      -0.710000
     18 CAJ         -0.5350     0.4280    -0.3560 cp         1 BW7       0.476500
     19 CAM          0.7600     1.1060    -0.6110 cp         1 BW7      -0.115500
     20 CAX          1.9430     0.4460    -0.2990 ca         1 BW7      -0.101000
     21 CAN          0.8220     2.3890    -1.1620 ca         1 BW7      -0.130000
     22 CAO          2.0520     2.9860    -1.3750 ca         1 BW7      -0.083000
     23 CAP          3.2370     2.3350    -1.0520 ca         1 BW7      -0.191000
     24 CAQ          3.1800     1.0510    -0.5160 ca         1 BW7       0.133100
     25 OAR          4.2600     0.3190    -0.1820 os         1 BW7      -0.330100
     26 CAS          5.5400     0.9160    -0.2620 c3         1 BW7       0.129600
     27 CAT          6.5680    -0.1000     0.2060 c3         1 BW7       0.162300
     28 OAU          6.2950    -0.5700     1.5070 oh         1 BW7      -0.635000
     29 CAV          7.9710     0.4840     0.0960 c3         1 BW7       0.118800
     30 NAW          8.9700    -0.5280     0.3920 n8         1 BW7      -0.987200
     31 H1          -4.7200     1.4480     2.1950 h1         1 BW7       0.053700
     32 H2          -5.0870    -0.0910     1.4350 h1         1 BW7       0.053700
     33 H3          -6.8010     0.9120     0.0210 h1         1 BW7       0.055450
     34 H4          -7.1130     1.3040     1.7210 h1         1 BW7       0.055450
     35 H5          -5.8580     2.6720    -1.3600 h1         1 BW7       0.055450
     36 H6          -5.5550     4.2360    -0.5860 h1         1 BW7       0.055450
     37 H7          -3.5060     2.9070    -1.0090 h1         1 BW7       0.053700
     38 H8          -3.6930     3.3170     0.7020 h1         1 BW7       0.053700
     39 H9          -1.6310     2.2620    -0.2110 ha         1 BW7       0.123000
     40 H10         -4.8940    -1.8930     0.4190 h4         1 BW7       0.044800
     41 H11          0.0400    -3.3610    -0.1360 h1         1 BW7       0.082700
     42 H12         -1.8840    -5.2810     1.2660 hc         1 BW7       0.047200
     43 H13         -0.1400    -5.4870     1.1030 hc         1 BW7       0.047200
     44 H14         -0.7790    -4.1620     2.0780 hc         1 BW7       0.047200
     45 H15         -1.1320    -4.0220    -2.2240 hc         1 BW7       0.047200
     46 H16         -0.3850    -5.4220    -1.4540 hc         1 BW7       0.047200
     47 H17         -2.1250    -5.1700    -1.3160 hc         1 BW7       0.047200
     48 H18          1.9090    -0.5490     0.1240 ha         1 BW7       0.149000
     49 H19         -0.0770     2.9160    -1.4470 ha         1 BW7       0.114000
     50 H20          2.0980     3.9770    -1.8070 ha         1 BW7       0.111000
     51 H21          4.1780     2.8360    -1.2310 ha         1 BW7       0.114000
     52 H22          5.7690     1.2160    -1.2910 h1         1 BW7       0.035200
     53 H23          5.5790     1.8180     0.3630 h1         1 BW7       0.035200
     54 H24          6.5130    -0.9790    -0.4450 h1         1 BW7       0.104700
     55 H25          6.3400     0.1760     2.1170 ho         1 BW7       0.432000
     56 H26          8.1260     0.8330    -0.9280 h1         1 BW7       0.029700
     57 H27          8.0340     1.3750     0.7410 h1         1 BW7       0.029700
     58 H28          9.8920    -0.1180     0.3130 hn         1 BW7       0.399500
     59 H29          8.8810    -0.8170     1.3580 hn         1 BW7       0.399500
@<TRIPOS>BOND
     1     1     2 1   
     2     1     6 1   
     3     1    31 1   
     4     1    32 1   
     5     2     3 1   
     6     2    33 1   
     7     2    34 1   
     8     3     4 1   
     9     4     5 1   
    10     4    35 1   
    11     4    36 1   
    12     5     6 1   
    13     5    37 1   
    14     5    38 1   
    15     6     7 1   
    16     7     8 ar  
    17     7     9 ar  
    18     8    18 ar  
    19     8    39 1   
    20     9    10 1   
    21     9    16 ar  
    22    10    11 2   
    23    10    40 1   
    24    11    12 1   
    25    12    13 1   
    26    12    16 1   
    27    13    14 1   
    28    13    15 1   
    29    13    41 1   
    30    14    42 1   
    31    14    43 1   
    32    14    44 1   
    33    15    45 1   
    34    15    46 1   
    35    15    47 1   
    36    16    17 ar  
    37    17    18 ar  
    38    18    19 1   
    39    19    20 ar  
    40    19    21 ar  
    41    20    24 ar  
    42    20    48 1   
    43    21    22 ar  
    44    21    49 1   
    45    22    23 ar  
    46    22    50 1   
    47    23    24 ar  
    48    23    51 1   
    49    24    25 1   
    50    25    26 1   
    51    26    27 1   
    52    26    52 1   
    53    26    53 1   
    54    27    28 1   
    55    27    29 1   
    56    27    54 1   
    57    28    55 1   
    58    29    30 1   
    59    29    56 1   
    60    29    57 1   
    61    30    58 1   
    62    30    59 1   
@<TRIPOS>SUBSTRUCTURE
     1 BW7         1 TEMP              0 ****  ****    0 ROOT
