@<TRIPOS>MOLECULE
BW8
   51    53     1     0     0
SMALL
No Charge or Current Charge


@<TRIPOS>ATOM
      1 C14         -1.4200    -1.7510    -0.1660 ca         1 BW8      -0.035000
      2 C16         -3.5820    -2.8380     0.2210 ca         1 BW8      -0.135000
      3 C19          1.0080    -0.9030    -0.3230 c          1 BW8       0.664100
      4 C24          6.2390     0.1130    -0.1540 ca         1 BW8      -0.156000
      5 C23          5.9320    -1.0680     0.5540 ca         1 BW8      -0.089000
      6 C25          5.1900     0.8220    -0.7730 ca         1 BW8       0.175000
      7 C26          3.8640     0.3700    -0.6910 ca         1 BW8      -0.159000
      8 C01         -7.6930     4.8010     1.7950 c3         1 BW8       0.097300
      9 C04         -7.0600     1.3550     0.1420 ca         1 BW8       0.318500
     10 C05         -6.1800     0.2540     0.1580 ca         1 BW8      -0.179000
     11 C06         -6.4080    -0.8250    -0.7090 ca         1 BW8       0.167100
     12 C07         -7.5200    -0.7870    -1.5540 ca         1 BW8      -0.186000
     13 C08         -8.3540     0.3360    -1.5210 ca         1 BW8       0.358900
     14 C11         -4.2250    -1.8520    -0.5390 ca         1 BW8       0.087100
     15 C12         -3.4690    -0.8230    -1.1310 ca         1 BW8      -0.115000
     16 C13         -2.0760    -0.7680    -0.9450 ca         1 BW8      -0.075000
     17 C15         -2.1930    -2.7840     0.4080 ca         1 BW8       0.136000
     18 C21          3.5570    -0.8120     0.0170 ca         1 BW8      -0.041000
     19 C22          4.6040    -1.5190     0.6350 ca         1 BW8      -0.168000
     20 C29          8.9870    -0.4480     0.6340 c3         1 BW8      -0.115400
     21 C30         10.4620    -0.0250     0.5930 c          1 BW8       0.738000
     22 F17         -1.5940    -3.7430     1.1510 f          1 BW8      -0.177000
     23 N02         -7.7300     3.5750     0.9960 ns         1 BW8      -0.489900
     24 N09         -8.1380     1.3880    -0.6990 nb         1 BW8      -0.703000
     25 N18         -0.0120    -1.7600     0.0650 ns         1 BW8      -0.177000
     26 N20          2.2400    -1.3370     0.1470 ns         1 BW8      -0.149000
     27 O10         -5.5870    -1.9300    -0.7200 os         1 BW8      -0.245200
     28 O31         11.1580    -0.4460    -0.3210 o          1 BW8      -0.709000
     29 O32         10.8780     0.7050     1.4810 o          1 BW8      -0.709000
     30 O33          0.8400     0.1080    -0.9940 o          1 BW8      -0.599100
     31 O34         -5.8740     2.6000     1.8750 o          1 BW8      -0.594100
     32 H1          -4.1590    -3.6410     0.6700 ha         1 BW8       0.145000
     33 H2           6.7070    -1.6480     1.0470 ha         1 BW8       0.126000
     34 H3           3.0960     0.9540    -1.1860 ha         1 BW8       0.152000
     35 H4          -7.7620     4.5500     2.8610 h1         1 BW8       0.039700
     36 H5          -6.7540     5.3370     1.6060 h1         1 BW8       0.039700
     37 H6          -8.5390     5.4440     1.5190 h1         1 BW8       0.039700
     38 H7          -5.3370     0.2440     0.8430 ha         1 BW8       0.168000
     39 H8          -7.7340    -1.6090    -2.2290 ha         1 BW8       0.138000
     40 H9          -9.2260     0.3990    -2.1720 h4         1 BW8       0.020100
     41 H10         -3.9580    -0.0670    -1.7420 ha         1 BW8       0.135000
     42 H11         -1.5290     0.0420    -1.4170 ha         1 BW8       0.148000
     43 H12          4.3880    -2.4320     1.1860 ha         1 BW8       0.097000
     44 H13          8.8940    -1.4450     0.1870 h1         1 BW8       0.045700
     45 H14          8.6620    -0.4910     1.6800 h1         1 BW8       0.045700
     46 H15         -8.4750     3.4440     0.3170 hn         1 BW8       0.341500
     47 H16          0.2980    -2.5470     0.6200 hn         1 BW8       0.158000
     48 H17          2.1990    -2.1920     0.6860 hn         1 BW8       0.142000
     49 F27          5.4530     1.9580    -1.4590 f          1 BW8      -0.171000
     50 C03         -6.8130     2.5440     1.0860 c          1 BW8       0.498600
     51 S28          7.9210     0.7440    -0.2940 ss         1 BW8      -0.041000
@<TRIPOS>BOND
     1     1    16 ar  
     2     1    17 ar  
     3     1    25 1   
     4     2    14 ar  
     5     2    17 ar  
     6     2    32 1   
     7     3    25 1   
     8     3    26 1   
     9     3    30 2   
    10     4     5 ar  
    11     4     6 ar  
    12     4    51 1   
    13     5    19 ar  
    14     5    33 1   
    15     6     7 ar  
    16     6    49 1   
    17     7    18 ar  
    18     7    34 1   
    19     8    23 1   
    20     8    35 1   
    21     8    36 1   
    22     8    37 1   
    23     9    10 ar  
    24     9    24 ar  
    25     9    50 1   
    26    10    11 ar  
    27    10    38 1   
    28    11    12 ar  
    29    11    27 1   
    30    12    13 ar  
    31    12    39 1   
    32    13    24 ar  
    33    13    40 1   
    34    14    15 ar  
    35    14    27 1   
    36    15    16 ar  
    37    15    41 1   
    38    16    42 1   
    39    17    22 1   
    40    18    19 ar  
    41    18    26 1   
    42    19    43 1   
    43    20    21 1   
    44    20    44 1   
    45    20    45 1   
    46    20    51 1   
    47    21    28 1   
    48    21    29 1   
    49    23    46 1   
    50    23    50 1   
    51    25    47 1   
    52    26    48 1   
    53    31    50 2   
@<TRIPOS>SUBSTRUCTURE
     1 BW8         1 TEMP              0 ****  ****    0 ROOT
