@<TRIPOS>MOLECULE
BW8
   51    53     1     0     0
SMALL
bcc


@<TRIPOS>ATOM
      1 C14         -1.5100    -2.2390    -0.1960 ca         1 BW8       0.057600
      2 C16         -3.8170    -2.6710     0.4480 ca         1 BW8      -0.153000
      3 C19          0.7600    -1.3780     0.0030 c          1 BW8       0.798100
      4 C24          5.6690     0.3590     0.3310 ca         1 BW8      -0.029100
      5 C23          5.6090    -1.0270     0.4510 ca         1 BW8      -0.107000
      6 C25          4.4470     1.0110     0.2300 ca         1 BW8       0.139900
      7 C26          3.2230     0.3800     0.2330 ca         1 BW8      -0.177000
      8 C01         -6.3880     4.9470     1.3140 c3         1 BW8       0.097300
      9 C04         -6.5140     1.4230    -0.0060 ca         1 BW8       0.383800
     10 C05         -5.7060     0.3060    -0.1500 ca         1 BW8      -0.262300
     11 C06         -6.2570    -0.8140    -0.7600 ca         1 BW8       0.167100
     12 C07         -7.5800    -0.7690    -1.1840 ca         1 BW8      -0.269300
     13 C08         -8.2900     0.4010    -0.9830 ca         1 BW8       0.424200
     14 C11         -4.2420    -2.0250    -0.7010 ca         1 BW8       0.087100
     15 C12         -3.3320    -1.4900    -1.5980 ca         1 BW8      -0.133000
     16 C13         -1.9750    -1.6080    -1.3470 ca         1 BW8      -0.093000
     17 C15         -2.4590    -2.7590     0.6770 ca         1 BW8       0.100900
     18 C21          3.1900    -1.0120     0.3370 ca         1 BW8       0.051600
     19 C22          4.3980    -1.6980     0.4510 ca         1 BW8      -0.186000
     20 C29          8.4330     0.1040     0.3240 c3         1 BW8      -0.163300
     21 C30          9.7970     0.8190     0.2160 c          1 BW8       0.948600
     22 F17         -2.0340    -3.3790     1.7860 f          1 BW8      -0.141900
     23 N02         -6.7710     3.6840     0.7320 ns         1 BW8      -0.556900
     24 N09         -7.7770     1.4810    -0.4090 nb         1 BW8      -0.703000
     25 N18         -0.1520    -2.3990     0.0870 ns         1 BW8      -0.503100
     26 N20          2.0200    -1.7700     0.3570 ns         1 BW8      -0.475100
     27 O10         -5.5900    -1.9680    -0.9640 os         1 BW8      -0.245200
     28 O31          9.7750     2.0610     0.1690 o          1 BW8      -0.814300
     29 O32         10.7850     0.0670     0.1910 o          1 BW8      -0.814300
     30 O33          0.4650    -0.2530    -0.3540 o          1 BW8      -0.599100
     31 O34         -4.7790     2.6690     1.0500 o          1 BW8      -0.594100
     32 H1          -4.5210    -3.0940     1.1520 ha         1 BW8       0.163000
     33 H2           6.5160    -1.6090     0.5420 ha         1 BW8       0.144000
     34 H3           2.3260     0.9740     0.1510 ha         1 BW8       0.170000
     35 H4          -6.1090     4.8390     2.3630 h1         1 BW8       0.039700
     36 H5          -5.5470     5.3940     0.7820 h1         1 BW8       0.039700
     37 H6          -7.2330     5.6250     1.2510 h1         1 BW8       0.039700
     38 H7          -4.6860     0.3310     0.2050 ha         1 BW8       0.186000
     39 H8          -8.0430    -1.6220    -1.6610 ha         1 BW8       0.156000
     40 H9          -9.3220     0.4650    -1.3050 h4         1 BW8       0.020100
     41 H10         -3.6750    -1.0020    -2.5020 ha         1 BW8       0.153000
     42 H11         -1.2710    -1.2160    -2.0660 ha         1 BW8       0.166000
     43 H12          4.3990    -2.7790     0.5350 ha         1 BW8       0.115000
     44 H13          8.3120    -0.6000    -0.5020 h1         1 BW8       0.045700
     45 H14          8.3930    -0.4690     1.2530 h1         1 BW8       0.045700
     46 H15         -7.7030     3.5650     0.3660 hn         1 BW8       0.341500
     47 H16          0.1230    -3.2580     0.5380 hn         1 BW8       0.324500
     48 H17          2.1620    -2.7500     0.5500 hn         1 BW8       0.308500
     49 F27          4.4650     2.3510     0.1210 f          1 BW8      -0.135900
     50 C03         -5.9340     2.6510     0.6450 c          1 BW8       0.565600
     51 S28          7.1250     1.3490     0.2880 ss         1 BW8      -0.120000
@<TRIPOS>BOND
     1     1    16 ar  
     2     1    17 ar  
     3     1    25 1   
     4     2    14 ar  
     5     2    17 ar  
     6     2    32 1   
     7     3    25 1   
     8     3    26 1   
     9     3    30 2   
    10     4     5 ar  
    11     4     6 ar  
    12     4    51 1   
    13     5    19 ar  
    14     5    33 1   
    15     6     7 ar  
    16     6    49 1   
    17     7    18 ar  
    18     7    34 1   
    19     8    23 1   
    20     8    35 1   
    21     8    36 1   
    22     8    37 1   
    23     9    10 ar  
    24     9    24 ar  
    25     9    50 1   
    26    10    11 ar  
    27    10    38 1   
    28    11    12 ar  
    29    11    27 1   
    30    12    13 ar  
    31    12    39 1   
    32    13    24 ar  
    33    13    40 1   
    34    14    15 ar  
    35    14    27 1   
    36    15    16 ar  
    37    15    41 1   
    38    16    42 1   
    39    17    22 1   
    40    18    19 ar  
    41    18    26 1   
    42    19    43 1   
    43    20    21 1   
    44    20    44 1   
    45    20    45 1   
    46    20    51 1   
    47    21    28 1   
    48    21    29 1   
    49    23    46 1   
    50    23    50 1   
    51    25    47 1   
    52    26    48 1   
    53    31    50 2   
@<TRIPOS>SUBSTRUCTURE
     1 BW8         1 TEMP              0 ****  ****    0 ROOT
