@<TRIPOS>MOLECULE
BWA
   47    50     1     0     0
SMALL
bcc


@<TRIPOS>ATOM
      1 C1          -0.8510    -1.1930     0.0830 ca         1 BWA       0.098600
      2 C3          -3.0280    -0.1590     0.6850 c          1 BWA       0.795100
      3 C11          1.2070    -1.9670    -0.9280 ca         1 BWA      -0.077500
      4 C12         -0.1350    -1.6470    -1.0290 ca         1 BWA      -0.176500
      5 C13         -7.5780    -0.1270     0.5020 ca         1 BWA       0.420200
      6 C15         -8.9480     0.5540    -1.1790 ca         1 BWA       0.410200
      7 C16         -8.0100     1.4650    -1.6430 ca         1 BWA      -0.250300
      8 C17         -6.7990     1.5610    -0.9770 ca         1 BWA      -0.080000
      9 C20          4.6060    -0.5740    -1.1000 c          1 BWA       0.731100
     10 C21          5.3760     0.6740    -0.8830 ca         1 BWA      -0.145100
     11 C22          5.3680     0.9500     0.4740 ca         1 BWA      -0.145100
     12 C23          4.5920    -0.1140     1.1520 c          1 BWA       0.731100
     13 C24          6.0220     1.4910    -1.7860 ca         1 BWA      -0.064000
     14 C25          6.6710     2.6140    -1.2750 ca         1 BWA      -0.117500
     15 C26          6.6620     2.8920     0.0890 ca         1 BWA      -0.117500
     16 C27          6.0060     2.0570     0.9910 ca         1 BWA      -0.064000
     17 N2          -2.2040    -0.9230    -0.1040 ns         1 BWA      -0.488100
     18 N4          -4.2820    -0.0250     0.1950 ns         1 BWA      -0.599900
     19 O5          -2.6800     0.3530     1.7400 o          1 BWA      -0.622100
     20 C6          -5.2670     0.7910     0.8770 c3         1 BWA       0.174300
     21 C7          -6.5660     0.7490     0.1270 ca         1 BWA      -0.237600
     22 C8          -0.1820    -1.0810     1.3050 ca         1 BWA      -0.176500
     23 C9           1.1650    -1.4010     1.3860 ca         1 BWA      -0.077500
     24 C10          1.8840    -1.8420     0.2810 ca         1 BWA      -0.151300
     25 N14         -8.7420    -0.2280    -0.1270 nb         1 BWA      -0.664000
     26 N19          4.1840    -0.9860     0.1540 n          1 BWA      -0.524400
     27 O29          4.3470    -0.2320     2.3260 o          1 BWA      -0.566000
     28 H1           1.7310    -2.3180    -1.8090 ha         1 BWA       0.142500
     29 H2          -0.6370    -1.7510    -1.9840 ha         1 BWA       0.146500
     30 H3          -7.4360    -0.7750     1.3620 h4         1 BWA       0.025100
     31 H4          -9.9070     0.4570    -1.6770 h4         1 BWA       0.022100
     32 H5          -8.2260     2.0820    -2.5030 ha         1 BWA       0.145000
     33 H6          -6.0450     2.2650    -1.3090 ha         1 BWA       0.140000
     34 H7           3.5970    -2.5420     1.3740 h1         1 BWA       0.069200
     35 H8           3.6390    -2.9150    -0.3390 h1         1 BWA       0.069200
     36 H9           6.0300     1.2750    -2.8460 ha         1 BWA       0.156500
     37 H10          7.1900     3.2830    -1.9480 ha         1 BWA       0.140000
     38 H11          7.1740     3.7730     0.4540 ha         1 BWA       0.140000
     39 H12          6.0000     2.2740     2.0510 ha         1 BWA       0.156500
     40 H13         -2.5720    -1.2220    -0.9940 hn         1 BWA       0.310500
     41 H14         -4.5290    -0.4200    -0.6980 hn         1 BWA       0.315500
     42 H15         -5.4200     0.4240     1.8950 h1         1 BWA       0.061200
     43 H16         -4.9220     1.8250     0.9580 h1         1 BWA       0.061200
     44 H17         -0.7000    -0.7580     2.1930 ha         1 BWA       0.146500
     45 H18          1.6600    -1.3100     2.3450 ha         1 BWA       0.142500
     46 C18          3.3520    -2.1540     0.3860 c3         1 BWA       0.165300
     47 O28          4.3750    -1.1440    -2.1370 o          1 BWA      -0.566000
@<TRIPOS>BOND
     1     1     4 ar  
     2     1    17 1   
     3     1    22 ar  
     4     2    17 1   
     5     2    18 1   
     6     2    19 2   
     7     3     4 ar  
     8     3    24 ar  
     9     3    28 1   
    10     4    29 1   
    11     5    21 ar  
    12     5    25 ar  
    13     5    30 1   
    14     6     7 ar  
    15     6    25 ar  
    16     6    31 1   
    17     7     8 ar  
    18     7    32 1   
    19     8    21 ar  
    20     8    33 1   
    21     9    10 1   
    22     9    26 1   
    23     9    47 2   
    24    10    11 ar  
    25    10    13 ar  
    26    11    12 1   
    27    11    16 ar  
    28    12    26 1   
    29    12    27 2   
    30    13    14 ar  
    31    13    36 1   
    32    14    15 ar  
    33    14    37 1   
    34    15    16 ar  
    35    15    38 1   
    36    16    39 1   
    37    17    40 1   
    38    18    20 1   
    39    18    41 1   
    40    20    21 1   
    41    20    42 1   
    42    20    43 1   
    43    22    23 ar  
    44    22    44 1   
    45    23    24 ar  
    46    23    45 1   
    47    24    46 1   
    48    26    46 1   
    49    34    46 1   
    50    35    46 1   
@<TRIPOS>SUBSTRUCTURE
     1 BWA         1 TEMP              0 ****  ****    0 ROOT
