@<TRIPOS>MOLECULE
BWA
   47    50     1     0     0
SMALL
No Charge or Current Charge


@<TRIPOS>ATOM
      1 C1          -0.8570    -1.0150     0.2070 ca         1 BWA       0.006000
      2 C3          -3.1810    -0.2150     0.9460 c          1 BWA       0.661100
      3 C11          1.1900    -1.8320    -0.8550 ca         1 BWA      -0.059500
      4 C12         -0.1710    -1.4860    -0.9280 ca         1 BWA      -0.158500
      5 C13         -7.8280    -0.3860     0.2160 ca         1 BWA       0.354900
      6 C15         -8.9910     0.6260    -1.5150 ca         1 BWA       0.344900
      7 C16         -7.9930     1.6020    -1.6720 ca         1 BWA      -0.167000
      8 C17         -6.8640     1.5700    -0.8390 ca         1 BWA      -0.062000
      9 C20          4.6780    -0.6190    -1.1370 c          1 BWA       0.588600
     10 C21          5.5150     0.6040    -0.9670 ca         1 BWA      -0.145100
     11 C22          5.5270     0.9430     0.3810 ca         1 BWA      -0.145100
     12 C23          4.6970    -0.0510     1.1220 c          1 BWA       0.588600
     13 C24          6.2120     1.3620    -1.9190 ca         1 BWA      -0.046000
     14 C25          6.9320     2.4880    -1.4660 ca         1 BWA      -0.099500
     15 C26          6.9440     2.8330    -0.0920 ca         1 BWA      -0.099500
     16 C27          6.2350     2.0570     0.8510 ca         1 BWA      -0.046000
     17 N2          -2.2310    -0.6850     0.0550 ns         1 BWA      -0.162000
     18 N4          -4.4070    -0.0290     0.3560 ns         1 BWA      -0.532900
     19 O5          -2.9920     0.0190     2.1310 o          1 BWA      -0.622100
     20 C6          -5.5870     0.4610     1.0610 c3         1 BWA       0.174300
     21 C7          -6.7800     0.5510     0.1270 ca         1 BWA      -0.172300
     22 C8          -0.1530    -0.8930     1.4250 ca         1 BWA      -0.158500
     23 C9           1.2080    -1.2390     1.4990 ca         1 BWA      -0.059500
     24 C10          1.8860    -1.7110     0.3610 ca         1 BWA      -0.151300
     25 N14         -8.9180    -0.3560    -0.5880 nb         1 BWA      -0.664000
     26 N19          4.2400    -0.9350     0.1470 n          1 BWA      -0.390400
     27 O29          4.4680    -0.0890     2.3230 o          1 BWA      -0.490500
     28 H1           1.7020    -2.1910    -1.7460 ha         1 BWA       0.124500
     29 H2          -0.6930    -1.5860    -1.8770 ha         1 BWA       0.128500
     30 H3          -7.7960    -1.1890     0.9520 h4         1 BWA       0.025100
     31 H4          -9.8770     0.6310    -2.1500 h4         1 BWA       0.022100
     32 H5          -8.1000     2.3710    -2.4330 ha         1 BWA       0.127000
     33 H6          -6.0770     2.3150    -0.9400 ha         1 BWA       0.122000
     34 H7           3.5910    -2.4590     1.4450 h1         1 BWA       0.069200
     35 H8           3.5770    -2.8890    -0.2660 h1         1 BWA       0.069200
     36 H9           6.1970     1.0900    -2.9730 ha         1 BWA       0.138500
     37 H10          7.4830     3.0970    -2.1800 ha         1 BWA       0.122000
     38 H11          7.5030     3.7050     0.2410 ha         1 BWA       0.122000
     39 H12          6.2390     2.3160     1.9090 ha         1 BWA       0.138500
     40 H13         -2.5770    -0.8210    -0.8860 hn         1 BWA       0.144000
     41 H14         -4.4890    -0.2430    -0.6290 hn         1 BWA       0.315500
     42 H15         -5.8110    -0.2140     1.8980 h1         1 BWA       0.061200
     43 H16         -5.3690     1.4550     1.4760 h1         1 BWA       0.061200
     44 H17         -0.6390    -0.5320     2.3250 ha         1 BWA       0.128500
     45 H18          1.7360    -1.1350     2.4450 ha         1 BWA       0.124500
     46 C18          3.3620    -2.0760     0.4410 c3         1 BWA       0.165300
     47 O28          4.4300    -1.2180    -2.1740 o          1 BWA      -0.490500
@<TRIPOS>BOND
     1     1     4 ar  
     2     1    17 1   
     3     1    22 ar  
     4     2    17 1   
     5     2    18 1   
     6     2    19 2   
     7     3     4 ar  
     8     3    24 ar  
     9     3    28 1   
    10     4    29 1   
    11     5    21 ar  
    12     5    25 ar  
    13     5    30 1   
    14     6     7 ar  
    15     6    25 ar  
    16     6    31 1   
    17     7     8 ar  
    18     7    32 1   
    19     8    21 ar  
    20     8    33 1   
    21     9    10 1   
    22     9    26 1   
    23     9    47 2   
    24    10    11 ar  
    25    10    13 ar  
    26    11    12 1   
    27    11    16 ar  
    28    12    26 1   
    29    12    27 2   
    30    13    14 ar  
    31    13    36 1   
    32    14    15 ar  
    33    14    37 1   
    34    15    16 ar  
    35    15    38 1   
    36    16    39 1   
    37    17    40 1   
    38    18    20 1   
    39    18    41 1   
    40    20    21 1   
    41    20    42 1   
    42    20    43 1   
    43    22    23 ar  
    44    22    44 1   
    45    23    24 ar  
    46    23    45 1   
    47    24    46 1   
    48    26    46 1   
    49    34    46 1   
    50    35    46 1   
@<TRIPOS>SUBSTRUCTURE
     1 BWA         1 TEMP              0 ****  ****    0 ROOT
