@<TRIPOS>MOLECULE
BWC
   54    57     1     0     0
SMALL
No Charge or Current Charge


@<TRIPOS>ATOM
      1 OAK        -14.6370    42.5570   -49.5020 o          1 BWC      -0.587000
      2 CAI        -13.4680    42.1990   -49.5230 c          1 BWC       0.586200
      3 NAH        -13.0220    40.9200   -49.3370 ns         1 BWC      -0.386100
      4 CAD        -11.6430    40.7660   -49.4070 ca         1 BWC       0.033600
      5 CAC        -10.8540    39.6190   -49.2680 ca         1 BWC      -0.111000
      6 CAB         -9.4560    39.7750   -49.3920 ca         1 BWC      -0.125000
      7 CAA         -8.8990    41.0510   -49.6470 ca         1 BWC       0.146000
      8 FAG         -7.5600    41.1800   -49.7620 f          1 BWC      -0.181000
      9 CAF         -9.7210    42.1910   -49.7820 ca         1 BWC      -0.109000
     10 CAE        -11.1090    42.0190   -49.6560 ca         1 BWC      -0.059800
     11 CAJ        -12.2140    42.9810   -49.7420 cc         1 BWC      -0.217400
     12 CAL        -12.0760    44.3270   -49.9800 cf         1 BWC       0.033800
     13 CAM        -13.0760    45.4050   -50.0930 cd         1 BWC      -0.232800
     14 CAQ        -12.8590    46.7460   -50.3410 cc         1 BWC      -0.036300
     15 CAR        -11.5160    47.4140   -50.5650 c3         1 BWC      -0.047800
     16 NAN        -14.4560    45.2520   -49.9660 na         1 BWC      -0.071000
     17 CAO        -15.1110    46.4670   -50.1270 cd         1 BWC      -0.045300
     18 CAS        -16.6120    46.5940   -50.0370 c3         1 BWC      -0.039800
     19 CAP        -14.1350    47.4090   -50.3570 cc         1 BWC      -0.256600
     20 CAT        -14.4420    48.8610   -50.5800 c          1 BWC       0.653700
     21 OAU        -15.5740    49.3270   -50.5960 o          1 BWC      -0.623100
     22 NAV        -13.3560    49.6700   -50.7690 ns         1 BWC      -0.485900
     23 CAW        -13.3850    51.1150   -51.0010 c3         1 BWC       0.098000
     24 CAX        -12.0390    51.7570   -50.5910 c3         1 BWC       0.146800
     25 NAY        -10.8470    51.0240   -51.0880 n3         1 BWC      -0.729600
     26 CAZ        -10.6780    50.9770   -52.5560 c5         1 BWC       0.158300
     27 CBA         -9.3070    50.2610   -52.6950 c5         1 BWC      -0.079400
     28 CBB         -8.5700    50.5910   -51.3580 c5         1 BWC      -0.079400
     29 CBC         -9.5470    51.5450   -50.6260 c5         1 BWC       0.158300
     30 H1         -13.6580    40.1510   -49.1620 hn         1 BWC       0.342500
     31 H2         -11.3000    38.6470   -49.0720 ha         1 BWC       0.125000
     32 H3          -8.8020    38.9130   -49.2910 ha         1 BWC       0.134000
     33 H4          -9.2800    43.1640   -49.9780 ha         1 BWC       0.133000
     34 H5         -11.0400    44.6350   -50.1030 ha         1 BWC       0.185000
     35 H6         -11.3130    48.1630   -49.7900 hc         1 BWC       0.051367
     36 H7         -10.6820    46.7070   -50.5410 hc         1 BWC       0.051367
     37 H8         -11.4780    47.9010   -51.5460 hc         1 BWC       0.051367
     38 H9         -14.9160    44.3590   -49.7800 hn         1 BWC       0.401000
     39 H10        -17.0320    46.9750   -50.9750 hc         1 BWC       0.061367
     40 H11        -17.0870    45.6280   -49.8310 hc         1 BWC       0.061367
     41 H12        -16.9020    47.2810   -49.2330 hc         1 BWC       0.061367
     42 H13        -12.4460    49.2350   -50.7360 hn         1 BWC       0.308500
     43 H14        -14.2000    51.5730   -50.4250 h1         1 BWC       0.059700
     44 H15        -13.5700    51.2950   -52.0680 h1         1 BWC       0.059700
     45 H16        -12.0050    51.7850   -49.4930 h1         1 BWC       0.030700
     46 H17        -12.0220    52.7980   -50.9400 h1         1 BWC       0.030700
     47 H19        -10.6390    51.9890   -52.9840 h1         1 BWC       0.037700
     48 H20        -11.4820    50.4240   -53.0600 h1         1 BWC       0.037700
     49 H21         -8.7580    50.6140   -53.5740 hc         1 BWC       0.047450
     50 H22         -9.4380    49.1790   -52.8100 hc         1 BWC       0.047450
     51 H23         -8.4040    49.6800   -50.7720 hc         1 BWC       0.047450
     52 H24         -7.5910    51.0540   -51.5200 hc         1 BWC       0.047450
     53 H25         -9.4340    51.4940   -49.5340 h1         1 BWC       0.037700
     54 H26         -9.3980    52.5890   -50.9390 h1         1 BWC       0.037700
@<TRIPOS>BOND
     1     1     2 2   
     2     2     3 1   
     3     2    11 1   
     4     3     4 1   
     5     3    30 1   
     6     4     5 ar  
     7     4    10 ar  
     8     5     6 ar  
     9     5    31 1   
    10     6     7 ar  
    11     6    32 1   
    12     7     8 1   
    13     7     9 ar  
    14     9    10 ar  
    15     9    33 1   
    16    10    11 1   
    17    11    12 2   
    18    12    13 1   
    19    12    34 1   
    20    13    14 2   
    21    13    16 1   
    22    14    15 1   
    23    14    19 1   
    24    15    35 1   
    25    15    36 1   
    26    15    37 1   
    27    16    17 1   
    28    16    38 1   
    29    17    18 1   
    30    17    19 2   
    31    18    39 1   
    32    18    40 1   
    33    18    41 1   
    34    19    20 1   
    35    20    21 2   
    36    20    22 1   
    37    22    23 1   
    38    22    42 1   
    39    23    24 1   
    40    23    43 1   
    41    23    44 1   
    42    24    25 1   
    43    24    45 1   
    44    24    46 1   
    45    25    26 1   
    46    25    29 1   
    47    26    27 1   
    48    26    47 1   
    49    26    48 1   
    50    27    28 1   
    51    27    49 1   
    52    27    50 1   
    53    28    29 1   
    54    28    51 1   
    55    28    52 1   
    56    29    53 1   
    57    29    54 1   
@<TRIPOS>SUBSTRUCTURE
     1 BWC         1 TEMP              0 ****  ****    0 ROOT
