@<TRIPOS>MOLECULE
BWC
   54    57     1     0     0
SMALL
bcc


@<TRIPOS>ATOM
      1 OAK        -14.3610    42.6830   -50.5520 o          1 BWC      -0.662500
      2 CAI        -13.2600    42.2990   -50.1600 c          1 BWC       0.728700
      3 NAH        -12.9160    40.9880   -50.0240 ns         1 BWC      -0.453100
      4 CAD        -11.6170    40.8370   -49.5640 ca         1 BWC       0.033600
      5 CAC        -10.9060    39.6840   -49.2980 ca         1 BWC      -0.129000
      6 CAB         -9.5990    39.8140   -48.8360 ca         1 BWC      -0.143000
      7 CAA         -9.0610    41.0770   -48.6590 ca         1 BWC       0.110900
      8 FAG         -7.7950    41.1780   -48.2090 f          1 BWC      -0.145900
      9 CAF         -9.7620    42.2400   -48.9220 ca         1 BWC      -0.127000
     10 CAE        -11.0630    42.1110   -49.3840 ca         1 BWC      -0.059800
     11 CAJ        -12.0780    43.0830   -49.7540 cc         1 BWC      -0.217400
     12 CAL        -11.9170    44.4370   -49.7170 cf         1 BWC       0.083800
     13 CAM        -12.7840    45.5020   -50.0340 cd         1 BWC      -0.182100
     14 CAQ        -12.5110    46.8730   -49.9500 cc         1 BWC      -0.036300
     15 CAR        -11.2110    47.4850   -49.5460 c3         1 BWC      -0.047800
     16 NAN        -14.0750    45.3710   -50.4930 na         1 BWC      -0.122100
     17 CAO        -14.6240    46.5640   -50.7150 cd         1 BWC       0.005400
     18 CAS        -16.0080    46.7080   -51.2350 c3         1 BWC      -0.039800
     19 CAP        -13.6780    47.5390   -50.3700 cc         1 BWC      -0.256600
     20 CAT        -13.9020    48.9870   -50.5380 c          1 BWC       0.720700
     21 OAU        -14.6040    49.4180   -51.4490 o          1 BWC      -0.623100
     22 NAV        -13.3160    49.7800   -49.6210 ns         1 BWC      -0.552900
     23 CAW        -13.0880    51.1940   -49.8000 c3         1 BWC       0.098000
     24 CAX        -11.6180    51.4980   -50.0780 c3         1 BWC       0.146800
     25 NAY        -11.0950    50.7670   -51.2020 n3         1 BWC      -0.729600
     26 CAZ        -11.6100    51.1600   -52.5010 c5         1 BWC       0.158300
     27 CBA        -10.6960    50.4290   -53.4880 c5         1 BWC      -0.079400
     28 CBB         -9.3950    50.1810   -52.6950 c5         1 BWC      -0.079400
     29 CBC         -9.6530    50.8390   -51.3410 c5         1 BWC       0.158300
     30 H1         -13.5430    40.2270   -50.2360 hn         1 BWC       0.342500
     31 H2         -11.3410    38.7040   -49.4430 ha         1 BWC       0.143000
     32 H3          -9.0060    38.9350   -48.6160 ha         1 BWC       0.152000
     33 H4          -9.3000    43.2070   -48.7660 ha         1 BWC       0.151000
     34 H5         -10.9430    44.7720   -49.3760 ha         1 BWC       0.135000
     35 H6         -11.2200    47.8060   -48.5010 hc         1 BWC       0.051367
     36 H7         -10.3840    46.7860   -49.6520 hc         1 BWC       0.051367
     37 H8         -10.9900    48.3620   -50.1570 hc         1 BWC       0.051367
     38 H9         -14.5010    44.4510   -50.6340 hn         1 BWC       0.350700
     39 H10        -16.0010    47.0600   -52.2660 hc         1 BWC       0.061367
     40 H11        -16.5360    45.7570   -51.2050 hc         1 BWC       0.061367
     41 H12        -16.5730    47.4320   -50.6510 hc         1 BWC       0.061367
     42 H13        -12.7880    49.3370   -48.8880 hn         1 BWC       0.308500
     43 H14        -13.3920    51.7350   -48.9010 h1         1 BWC       0.059700
     44 H15        -13.7240    51.5470   -50.6090 h1         1 BWC       0.059700
     45 H16        -11.0330    51.2270   -49.1940 h1         1 BWC       0.030700
     46 H17        -11.5110    52.5900   -50.2010 h1         1 BWC       0.030700
     47 H19        -11.5360    52.2520   -52.6440 h1         1 BWC       0.037700
     48 H20        -12.6590    50.8860   -52.6180 h1         1 BWC       0.037700
     49 H21        -10.5310    51.0200   -54.3890 hc         1 BWC       0.047450
     50 H22        -11.1440    49.4850   -53.7980 hc         1 BWC       0.047450
     51 H23         -9.2190    49.1120   -52.5720 hc         1 BWC       0.047450
     52 H24         -8.5160    50.5990   -53.1850 hc         1 BWC       0.047450
     53 H25         -9.1550    50.3330   -50.5120 h1         1 BWC       0.037700
     54 H26         -9.2960    51.8840   -51.3520 h1         1 BWC       0.037700
@<TRIPOS>BOND
     1     1     2 2   
     2     2     3 1   
     3     2    11 1   
     4     3     4 1   
     5     3    30 1   
     6     4     5 ar  
     7     4    10 ar  
     8     5     6 ar  
     9     5    31 1   
    10     6     7 ar  
    11     6    32 1   
    12     7     8 1   
    13     7     9 ar  
    14     9    10 ar  
    15     9    33 1   
    16    10    11 1   
    17    11    12 2   
    18    12    13 1   
    19    12    34 1   
    20    13    14 2   
    21    13    16 1   
    22    14    15 1   
    23    14    19 1   
    24    15    35 1   
    25    15    36 1   
    26    15    37 1   
    27    16    17 1   
    28    16    38 1   
    29    17    18 1   
    30    17    19 2   
    31    18    39 1   
    32    18    40 1   
    33    18    41 1   
    34    19    20 1   
    35    20    21 2   
    36    20    22 1   
    37    22    23 1   
    38    22    42 1   
    39    23    24 1   
    40    23    43 1   
    41    23    44 1   
    42    24    25 1   
    43    24    45 1   
    44    24    46 1   
    45    25    26 1   
    46    25    29 1   
    47    26    27 1   
    48    26    47 1   
    49    26    48 1   
    50    27    28 1   
    51    27    49 1   
    52    27    50 1   
    53    28    29 1   
    54    28    51 1   
    55    28    52 1   
    56    29    53 1   
    57    29    54 1   
@<TRIPOS>SUBSTRUCTURE
     1 BWC         1 TEMP              0 ****  ****    0 ROOT
