@<TRIPOS>MOLECULE
BWD
   22    22     1     0     0
SMALL
No Charge or Current Charge


@<TRIPOS>ATOM
      1 N1          -0.5250    -0.4190     0.6370 n          1 BWD      -0.291000
      2 C2          -1.8990    -0.1660     0.4280 c          1 BWD       0.609000
      3 O2          -2.7300    -0.1940     1.3220 o          1 BWD      -0.529000
      4 N3          -2.2680     0.1280    -0.8470 ns         1 BWD      -0.473500
      5 C4          -1.4860     0.1950    -1.9550 c          1 BWD       0.608200
      6 O4          -1.9540     0.4740    -3.0470 o          1 BWD      -0.539000
      7 C5          -0.0640    -0.1010    -1.6980 cc         1 BWD      -0.298500
      8 Br5          1.1040    -0.0500    -3.1860 br         1 BWD      -0.051700
      9 C6           0.3730    -0.4030    -0.4290 cd         1 BWD       0.055600
     10 C7          -0.0590    -0.7770     2.0030 c3         1 BWD       0.065000
     11 C8           0.3320     0.4430     2.8820 c3         1 BWD       0.003500
     12 N8           1.3870     1.3050     2.2160 n8         1 BWD      -0.987200
     13 C9           0.6480    -0.0450     4.3500 c          1 BWD       0.726000
     14 O91          1.5710    -0.8330     4.5150 o          1 BWD      -0.712000
     15 O92         -0.0140     0.4160     5.2700 o          1 BWD      -0.712000
     16 H3          -3.2470     0.3170    -0.9880 hn         1 BWD       0.333500
     17 H6           1.4010    -0.6420    -0.1680 h4         1 BWD       0.220000
     18 H71          0.8040    -1.4510     1.9200 h1         1 BWD       0.075200
     19 H72         -0.8450    -1.3470     2.5170 h1         1 BWD       0.075200
     20 H8          -0.5710     1.0640     2.9670 h1         1 BWD       0.067700
     21 H81          2.2710     0.7810     2.1650 hn         1 BWD       0.377500
     22 H82          1.1270     1.4640     1.2360 hn         1 BWD       0.377500
@<TRIPOS>BOND
     1     1     2 1   
     2     1     9 1   
     3     1    10 1   
     4     2     3 2   
     5     2     4 1   
     6     4     5 1   
     7     4    16 1   
     8     5     6 2   
     9     5     7 1   
    10     7     8 1   
    11     7     9 2   
    12     9    17 1   
    13    10    11 1   
    14    10    18 1   
    15    10    19 1   
    16    11    12 1   
    17    11    13 1   
    18    11    20 1   
    19    12    21 1   
    20    12    22 1   
    21    13    14 1   
    22    13    15 1   
@<TRIPOS>SUBSTRUCTURE
     1 BWD         1 TEMP              0 ****  ****    0 ROOT
