@<TRIPOS>MOLECULE
BWD
   22    22     1     0     0
SMALL
bcc


@<TRIPOS>ATOM
      1 N1          -0.6040    -0.5000     0.6870 n          1 BWD      -0.358000
      2 C2          -1.8950    -0.0540     0.4960 c          1 BWD       0.818500
      3 O2          -2.7030     0.0370     1.3950 o          1 BWD      -0.604500
      4 N3          -2.2010     0.2780    -0.8000 ns         1 BWD      -0.607500
      5 C4          -1.3830     0.2410    -1.9140 c          1 BWD       0.750700
      6 O4          -1.7880     0.5770    -3.0080 o          1 BWD      -0.614500
      7 C5          -0.0490    -0.2280    -1.6080 cc         1 BWD      -0.298500
      8 BR5          1.1810    -0.3410    -3.0070 br         1 BWD      -0.051700
      9 C6           0.2760    -0.5690    -0.3460 cd         1 BWD       0.105600
     10 C7          -0.1530    -0.8020     2.0470 c3         1 BWD       0.065000
     11 C8           0.3030     0.4530     2.8110 c3         1 BWD       0.003500
     12 N8           1.2850     1.2590     2.1220 n8         1 BWD      -0.876800
     13 C9           0.8050    -0.0200     4.1990 c          1 BWD       0.936600
     14 O91          1.9870     0.2190     4.4980 o          1 BWD      -0.817300
     15 O92         -0.0390    -0.6290     4.8870 o          1 BWD      -0.817300
     16 H3          -3.1500     0.6010    -0.9510 hn         1 BWD       0.333500
     17 H6           1.2620    -0.9290    -0.0880 h4         1 BWD       0.170000
     18 H71          0.6730    -1.5080     1.9500 h1         1 BWD       0.075200
     19 H72         -0.9560    -1.3080     2.5750 h1         1 BWD       0.075200
     20 H8          -0.5810     1.0780     2.9750 h1         1 BWD       0.067700
     21 H81          2.1390     0.7390     1.9700 hn         1 BWD       0.322300
     22 H82          0.9470     1.5660     1.2190 hn         1 BWD       0.322300
@<TRIPOS>BOND
     1     1     2 1   
     2     1     9 1   
     3     1    10 1   
     4     2     3 2   
     5     2     4 1   
     6     4     5 1   
     7     4    16 1   
     8     5     6 2   
     9     5     7 1   
    10     7     8 1   
    11     7     9 2   
    12     9    17 1   
    13    10    11 1   
    14    10    18 1   
    15    10    19 1   
    16    11    12 1   
    17    11    13 1   
    18    11    20 1   
    19    12    21 1   
    20    12    22 1   
    21    13    14 1   
    22    13    15 1   
@<TRIPOS>SUBSTRUCTURE
     1 BWD         1 TEMP              0 ****  ****    0 ROOT
