@<TRIPOS>MOLECULE
BWE
   57    59     1     0     0
SMALL
abcg2


@<TRIPOS>ATOM
      1 C1           7.7800     3.5120     0.1210 c3         1 BWE      -0.071100
      2 C2           6.8720     2.3130    -0.0890 c3         1 BWE      -0.290400
      3 O4           5.2740     2.8380     1.9560 o          1 BWE      -0.519500
      4 O5           4.6530     3.7400    -0.3060 o          1 BWE      -0.519500
      5 C7           3.7460     1.0060    -1.0960 ca         1 BWE      -0.015000
      6 C8           3.0610    -0.1670    -1.3690 ca         1 BWE      -0.108000
      7 C9           2.9440    -1.1570    -0.4020 ca         1 BWE      -0.056300
      8 C10          3.5250    -0.9730     0.8480 ca         1 BWE      -0.108000
      9 C11          4.2180     0.1910     1.1340 ca         1 BWE      -0.015000
     10 C12          2.1540    -2.4190    -0.6960 c3         1 BWE       0.088000
     11 C16          4.5350    -5.3300    -0.4690 c3         1 BWE      -0.177100
     12 C20         -1.3080    -1.2420     0.1260 cc         1 BWE      -0.095400
     13 C21         -2.2350    -0.3810    -0.3790 cd         1 BWE      -0.180000
     14 C22         -3.4210    -0.3330     0.4120 cd         1 BWE      -0.053000
     15 C27         -5.3440     2.6980    -0.6970 ca         1 BWE       0.005000
     16 C31         -5.8790     0.1510     0.2630 ca         1 BWE       0.091100
     17 C33         -6.1970    -2.1100    -0.2370 c3         1 BWE       0.148900
     18 C34         -5.0560     4.0090    -1.1820 cg         1 BWE       0.319000
     19 S3           5.2180     2.6610     0.5050 sy         1 BWE       1.037500
     20 C6           4.3200     1.1720     0.1560 ca         1 BWE      -0.257500
     21 N13          2.8440    -3.6160    -0.3100 ns         1 BWE      -0.507900
     22 O15          4.3590    -3.4650    -1.9630 o          1 BWE      -0.599100
     23 C17          0.8400    -2.3510     0.0770 c          1 BWE       0.590100
     24 O18          0.6510    -2.9770     1.1040 o          1 BWE      -0.584100
     25 N19         -0.0750    -1.5130    -0.4430 ns         1 BWE      -0.361100
     26 C23         -3.3490    -1.1630     1.4920 cc         1 BWE      -0.248000
     27 S24         -1.8590    -2.0050     1.5740 ss         1 BWE       0.316000
     28 C25         -4.5490     0.5540     0.0910 ca         1 BWE      -0.007000
     29 C26         -4.2970     1.8350    -0.3930 ca         1 BWE      -0.075000
     30 C28         -6.6700     2.3080    -0.5250 ca         1 BWE      -0.112000
     31 C29         -6.9050     1.0370    -0.0560 ca         1 BWE       0.155000
     32 F30         -8.1640     0.6240     0.1030 f          1 BWE      -0.160000
     33 N35         -4.8230     5.0670    -1.5740 n1         1 BWE      -0.439000
     34 H1           7.4280     4.3840    -0.4280 hc         1 BWE       0.054367
     35 H2           7.8690     3.7700     1.1750 hc         1 BWE       0.054367
     36 H3           8.7750     3.2660    -0.2470 hc         1 BWE       0.054367
     37 H4           6.7800     2.0500    -1.1430 h1         1 BWE       0.095200
     38 H5           7.2220     1.4350     0.4560 h1         1 BWE       0.095200
     39 H6           3.8300     1.7700    -1.8560 ha         1 BWE       0.140500
     40 H7           2.6230    -0.3090    -2.3500 ha         1 BWE       0.124500
     41 H8           3.4430    -1.7400     1.6090 ha         1 BWE       0.124500
     42 H9           4.6630     0.3270     2.1100 ha         1 BWE       0.140500
     43 H10          1.9300    -2.4480    -1.7680 h1         1 BWE       0.084700
     44 H11          4.0190    -5.7410     0.3960 hc         1 BWE       0.064700
     45 H12          4.5340    -6.0800    -1.2610 hc         1 BWE       0.064700
     46 H13          5.5740    -5.1460    -0.1980 hc         1 BWE       0.064700
     47 H14         -2.0880     0.1810    -1.2910 ha         1 BWE       0.135000
     48 H15         -6.4160    -3.0360     0.2890 h1         1 BWE       0.042700
     49 H16         -6.9630    -1.9420    -0.9980 h1         1 BWE       0.042700
     50 H17         -5.2230    -2.1990    -0.7210 h1         1 BWE       0.042700
     51 H18          2.5070    -4.1180     0.4970 hn         1 BWE       0.343500
     52 H19          0.1240    -1.0460    -1.3170 hn         1 BWE       0.333500
     53 H20         -4.0810    -1.3140     2.2680 h4         1 BWE       0.167000
     54 H21         -3.2770     2.1700    -0.5200 ha         1 BWE       0.135000
     55 H22         -7.4920     2.9720    -0.7540 ha         1 BWE       0.147000
     56 C14          3.9200    -4.0580    -0.9900 c          1 BWE       0.605100
     57 O32         -6.2030    -1.0670     0.7390 os         1 BWE      -0.348100
@<TRIPOS>BOND
     1     1     2 1   
     2     1    34 1   
     3     1    35 1   
     4     1    36 1   
     5     2    19 1   
     6     2    37 1   
     7     2    38 1   
     8     3    19 2   
     9     4    19 2   
    10     5     6 ar  
    11     5    20 ar  
    12     5    39 1   
    13     6     7 ar  
    14     6    40 1   
    15     7     8 ar  
    16     7    10 1   
    17     8     9 ar  
    18     8    41 1   
    19     9    20 ar  
    20     9    42 1   
    21    10    21 1   
    22    10    23 1   
    23    10    43 1   
    24    11    44 1   
    25    11    45 1   
    26    11    46 1   
    27    11    56 1   
    28    12    13 2   
    29    12    25 1   
    30    12    27 1   
    31    13    14 1   
    32    13    47 1   
    33    14    26 2   
    34    14    28 1   
    35    15    18 1   
    36    15    29 ar  
    37    15    30 ar  
    38    16    28 ar  
    39    16    31 ar  
    40    16    57 1   
    41    17    48 1   
    42    17    49 1   
    43    17    50 1   
    44    17    57 1   
    45    18    33 3   
    46    19    20 1   
    47    21    51 1   
    48    21    56 1   
    49    22    56 2   
    50    23    24 2   
    51    23    25 1   
    52    25    52 1   
    53    26    27 1   
    54    26    53 1   
    55    28    29 ar  
    56    29    54 1   
    57    30    31 ar  
    58    30    55 1   
    59    31    32 1   
@<TRIPOS>SUBSTRUCTURE
     1 BWE         1 TEMP              0 ****  ****    0 ROOT
