@<TRIPOS>MOLECULE
BWE
   57    59     1     0     0
SMALL
No Charge or Current Charge


@<TRIPOS>ATOM
      1 C1           7.6300     3.7240     0.4580 c3         1 BWE      -0.071100
      2 C2           6.7280     2.4910     0.2090 c3         1 BWE      -0.290400
      3 O4           4.7110     3.2160     1.7530 o          1 BWE      -0.519500
      4 O5           4.6280     3.7790    -0.7430 o          1 BWE      -0.519500
      5 C7           3.8560     0.8950    -1.3060 ca         1 BWE      -0.015000
      6 C8           3.2650    -0.3530    -1.5650 ca         1 BWE      -0.108000
      7 C9           3.0020    -1.2520    -0.5120 ca         1 BWE      -0.056300
      8 C10          3.3440    -0.8880     0.8050 ca         1 BWE      -0.108000
      9 C11          3.9350     0.3590     1.0710 ca         1 BWE      -0.015000
     10 C12          2.3540    -2.6070    -0.7990 c3         1 BWE       0.088000
     11 C16          5.1430    -5.2730    -0.6590 c3         1 BWE      -0.177100
     12 C20         -1.2440    -1.6430     0.1160 cc         1 BWE      -0.095400
     13 C21         -2.0590    -0.6300    -0.3130 cd         1 BWE      -0.180000
     14 C22         -3.3620    -0.6050     0.2850 cd         1 BWE      -0.053000
     15 C27         -4.9230     2.6240    -0.9810 ca         1 BWE       0.005000
     16 C31         -5.8190     0.1600     0.1120 ca         1 BWE       0.091100
     17 C33         -7.5890    -1.4810     0.8180 c3         1 BWE       0.148900
     18 C34         -4.4620     3.8720    -1.5280 cg         1 BWE       0.319000
     19 S3           4.9600     2.8550     0.3500 sy         1 BWE       1.037500
     20 C6           4.1890     1.2580     0.0150 ca         1 BWE      -0.257500
     21 N13          3.2720    -3.7160    -0.4610 ns         1 BWE      -0.507900
     22 O15          4.6280    -3.5690    -2.2850 o          1 BWE      -0.599100
     23 C17          0.9980    -2.7520    -0.0480 c          1 BWE       0.590100
     24 O18          0.7940    -3.6310     0.7830 o          1 BWE      -0.584100
     25 N19          0.0510    -1.7950    -0.3810 ns         1 BWE      -0.361100
     26 C23         -3.5180    -1.6640     1.1580 cc         1 BWE      -0.248000
     27 S24         -2.0680    -2.6480     1.3070 ss         1 BWE       0.316000
     28 C25         -4.4190     0.3880    -0.0770 ca         1 BWE      -0.007000
     29 C26         -4.0030     1.6240    -0.6290 ca         1 BWE      -0.075000
     30 C28         -6.2910     2.4030    -0.7860 ca         1 BWE      -0.112000
     31 C29         -6.7420     1.1900    -0.2490 ca         1 BWE       0.155000
     32 F30         -8.0790     1.0540    -0.1020 f          1 BWE      -0.160000
     33 N35         -4.0980     4.8880    -1.9730 n1         1 BWE      -0.439000
     34 H1           7.4180     4.5190    -0.2690 hc         1 BWE       0.054367
     35 H2           7.4760     4.1270     1.4660 hc         1 BWE       0.054367
     36 H3           8.6870     3.4490     0.3610 hc         1 BWE       0.054367
     37 H4           6.8920     2.0960    -0.7990 h1         1 BWE       0.095200
     38 H5           6.9490     1.7040     0.9390 h1         1 BWE       0.095200
     39 H6           4.0530     1.5730    -2.1350 ha         1 BWE       0.140500
     40 H7           3.0170    -0.6220    -2.5890 ha         1 BWE       0.124500
     41 H8           3.1540    -1.5730     1.6290 ha         1 BWE       0.124500
     42 H9           4.1930     0.6190     2.0960 ha         1 BWE       0.140500
     43 H10          2.1180    -2.6730    -1.8690 h1         1 BWE       0.084700
     44 H11          4.4670    -6.1160    -0.4780 hc         1 BWE       0.064700
     45 H12          5.9850    -5.5580    -1.2990 hc         1 BWE       0.064700
     46 H13          5.4730    -5.0170     0.3550 hc         1 BWE       0.064700
     47 H14         -1.7330     0.0770    -1.0680 ha         1 BWE       0.135000
     48 H15         -7.6220    -2.5080     1.2020 h1         1 BWE       0.042700
     49 H16         -8.0720    -0.8310     1.5590 h1         1 BWE       0.042700
     50 H17         -8.1650    -1.4550    -0.1160 h1         1 BWE       0.042700
     51 H18          3.0960    -4.2430     0.3880 hn         1 BWE       0.343500
     52 H19          0.3710    -1.1210    -1.0670 hn         1 BWE       0.333500
     53 H20         -4.3640    -1.9380     1.7710 h4         1 BWE       0.167000
     54 H21         -2.9460     1.8360    -0.7590 ha         1 BWE       0.135000
     55 H22         -7.0150     3.1700    -1.0530 ha         1 BWE       0.147000
     56 C14          4.3430    -4.1090    -1.2270 c          1 BWE       0.605100
     57 O32         -6.2250    -1.0810     0.5930 os         1 BWE      -0.348100
@<TRIPOS>BOND
     1     1     2 1   
     2     1    34 1   
     3     1    35 1   
     4     1    36 1   
     5     2    19 1   
     6     2    37 1   
     7     2    38 1   
     8     3    19 2   
     9     4    19 2   
    10     5     6 ar  
    11     5    20 ar  
    12     5    39 1   
    13     6     7 ar  
    14     6    40 1   
    15     7     8 ar  
    16     7    10 1   
    17     8     9 ar  
    18     8    41 1   
    19     9    20 ar  
    20     9    42 1   
    21    10    21 1   
    22    10    23 1   
    23    10    43 1   
    24    11    44 1   
    25    11    45 1   
    26    11    46 1   
    27    11    56 1   
    28    12    13 2   
    29    12    25 1   
    30    12    27 1   
    31    13    14 1   
    32    13    47 1   
    33    14    26 2   
    34    14    28 1   
    35    15    18 1   
    36    15    29 ar  
    37    15    30 ar  
    38    16    28 ar  
    39    16    31 ar  
    40    16    57 1   
    41    17    48 1   
    42    17    49 1   
    43    17    50 1   
    44    17    57 1   
    45    18    33 3   
    46    19    20 1   
    47    21    51 1   
    48    21    56 1   
    49    22    56 2   
    50    23    24 2   
    51    23    25 1   
    52    25    52 1   
    53    26    27 1   
    54    26    53 1   
    55    28    29 ar  
    56    29    54 1   
    57    30    31 ar  
    58    30    55 1   
    59    31    32 1   
@<TRIPOS>SUBSTRUCTURE
     1 BWE         1 TEMP              0 ****  ****    0 ROOT
