@<TRIPOS>MOLECULE
BWF
   23    23     1     0     0
SMALL
No Charge or Current Charge


@<TRIPOS>ATOM
      1 C1         198.1800    24.7280   110.7900 c          1 BWF       0.754000
      2 O3         197.6230    25.0470   111.8270 o          1 BWF      -0.753000
      3 N5         199.0010    23.5940   110.7920 n          1 BWF      -0.473800
      4 C6         199.2150    22.7460   111.9940 c5         1 BWF       0.170900
      5 C7         199.8520    21.4600   111.3810 c5         1 BWF      -0.086400
      6 C8         200.6140    21.9940   110.1410 c5         1 BWF      -0.102400
      7 C9         199.6230    23.0440   109.5700 c5         1 BWF       0.140000
      8 C10        200.1850    23.3930   113.0290 c2         1 BWF       0.145900
      9 O11        200.0940    23.0940   114.3270 oh         1 BWF      -0.696100
     10 C12        201.1410    24.2550   112.6100 ce         1 BWF      -0.467200
     11 C13        202.1260    24.9290   113.4830 c          1 BWF       0.719200
     12 O14        202.9270    25.6780   112.9560 o          1 BWF      -0.741000
     13 O16        202.0870    24.6960   114.6810 o          1 BWF      -0.741000
     14 H2         198.2580    22.5000   112.4750 h1         1 BWF       0.056700
     15 H3         199.0700    20.7560   111.0740 hc         1 BWF       0.021200
     16 H4         200.5020    20.9280   112.0840 hc         1 BWF       0.021200
     17 H5         200.8450    21.2050   109.4170 hc         1 BWF       0.022200
     18 H6         201.5650    22.4560   110.4270 hc         1 BWF       0.022200
     19 H7         200.1430    23.8120   108.9830 h1         1 BWF       0.006700
     20 H8         198.8620    22.5700   108.9360 h1         1 BWF       0.006700
     21 H9         200.8340    23.6500   114.7160 ho         1 BWF       0.544000
     22 H10        201.2410    24.5140   111.5620 ha         1 BWF       0.182000
     23 O1         198.0300    25.3310   109.7410 o          1 BWF      -0.753000
@<TRIPOS>BOND
     1     1     2 1   
     2     1     3 1   
     3     1    23 1   
     4     3     4 1   
     5     3     7 1   
     6     4     5 1   
     7     4     8 1   
     8     4    14 1   
     9     5     6 1   
    10     5    15 1   
    11     5    16 1   
    12     6     7 1   
    13     6    17 1   
    14     6    18 1   
    15     7    19 1   
    16     7    20 1   
    17     8     9 1   
    18     8    10 2   
    19     9    21 1   
    20    10    11 1   
    21    10    22 1   
    22    11    12 1   
    23    11    13 1   
@<TRIPOS>SUBSTRUCTURE
     1 BWF         1 TEMP              0 ****  ****    0 ROOT
