@<TRIPOS>MOLECULE
BWF
   23    23     1     0     0
SMALL
bcc


@<TRIPOS>ATOM
      1 C1         198.1110    24.6460   110.6920 c          1 BWF       1.031600
      2 O3         197.5810    24.9950   111.7700 o          1 BWF      -0.858300
      3 N5         199.0590    23.6170   110.7630 n          1 BWF      -0.540800
      4 C6         199.2870    22.8540   111.9630 c5         1 BWF       0.170900
      5 C7         199.8230    21.5130   111.4300 c5         1 BWF      -0.086400
      6 C8         200.5460    21.9190   110.1510 c5         1 BWF      -0.102400
      7 C9         199.6490    23.0150   109.5850 c5         1 BWF       0.140000
      8 C10        200.2750    23.4750   112.9180 c2         1 BWF       0.145900
      9 O11        200.2730    22.9200   114.1210 oh         1 BWF      -0.657100
     10 C12        201.1340    24.4720   112.6000 ce         1 BWF      -0.417200
     11 C13        202.1200    24.9570   113.5900 c          1 BWF       0.929800
     12 O14        202.9330    25.8380   113.2810 o          1 BWF      -0.846300
     13 O16        202.0690    24.4020   114.7500 o          1 BWF      -0.846300
     14 H2         198.3550    22.6990   112.5160 h1         1 BWF       0.056700
     15 H3         198.9830    20.8550   111.1950 hc         1 BWF       0.021200
     16 H4         200.4570    20.9880   112.1450 hc         1 BWF       0.021200
     17 H5         200.6840    21.0910   109.4550 hc         1 BWF       0.022200
     18 H6         201.5350    22.3180   110.3870 hc         1 BWF       0.022200
     19 H7         200.2140    23.7380   108.9920 h1         1 BWF       0.006700
     20 H8         198.8880    22.5840   108.9210 h1         1 BWF       0.006700
     21 H9         201.0430    23.4570   114.6070 ho         1 BWF       0.505000
     22 H10        201.1030    24.9080   111.6120 ha         1 BWF       0.132000
     23 O1         197.8940    25.1170   109.5540 o          1 BWF      -0.858300
@<TRIPOS>BOND
     1     1     2 1   
     2     1     3 1   
     3     1    23 1   
     4     3     4 1   
     5     3     7 1   
     6     4     5 1   
     7     4     8 1   
     8     4    14 1   
     9     5     6 1   
    10     5    15 1   
    11     5    16 1   
    12     6     7 1   
    13     6    17 1   
    14     6    18 1   
    15     7    19 1   
    16     7    20 1   
    17     8     9 1   
    18     8    10 2   
    19     9    21 1   
    20    10    11 1   
    21    10    22 1   
    22    11    12 1   
    23    11    13 1   
@<TRIPOS>SUBSTRUCTURE
     1 BWF         1 TEMP              0 ****  ****    0 ROOT
