@<TRIPOS>MOLECULE
BWG
   36    37     1     0     0
SMALL
No Charge or Current Charge


@<TRIPOS>ATOM
      1 C1           0.9510     0.1690    -0.9850 c6         1 BWG       0.429500
      2 N1          -0.0720     0.4290     0.0250 nu         1 BWG      -0.956100
      3 C2           1.6620    -1.2300    -0.7990 c6         1 BWG       0.107300
      4 O2           2.5210    -1.5730    -1.9190 oh         1 BWG      -0.683000
      5 C3           2.5170    -1.2130     0.5030 c6         1 BWG       0.140300
      6 O3           3.2450    -2.4480     0.6220 oh         1 BWG      -0.644000
      7 C4           3.5030    -0.0060     0.5030 c6         1 BWG       0.143300
      8 O4           4.2620     0.0010     1.7300 oh         1 BWG      -0.722000
      9 C5           2.7040     1.3160     0.3000 c6         1 BWG       0.165300
     10 O5           1.9130     1.2410    -0.9220 os         1 BWG      -0.413000
     11 C6           3.6380     2.5660     0.1980 c3         1 BWG       0.173600
     12 O6           2.9210     3.7960    -0.0400 oh         1 BWG      -0.707000
     13 C13         -1.3470    -0.0290    -0.0850 cc         1 BWG       0.738300
     14 S14         -2.6570     0.5800     0.8890 ss         1 BWG      -0.099400
     15 C15         -2.9860    -1.2780    -0.8840 cd         1 BWG       0.403900
     16 C16         -3.6860    -0.5470     0.0440 cc         1 BWG      -0.364600
     17 N17         -1.6320    -0.9730    -0.9540 nd         1 BWG      -0.725000
     18 C18         -5.1290    -0.7250     0.2670 c          1 BWG       0.622700
     19 O19         -5.7830    -1.5400    -0.3690 o          1 BWG      -0.529100
     20 C20         -5.7970     0.1470     1.3270 c3         1 BWG      -0.196100
     21 H1           0.4930     0.1810    -1.9890 h2         1 BWG       0.111700
     22 HN1         -0.0290     1.3210     0.5040 hn         1 BWG       0.498000
     23 H2           0.8870    -2.0010    -0.6870 h1         1 BWG       0.038700
     24 HO2          1.9390    -1.7620    -2.6930 ho         1 BWG       0.510000
     25 H3           1.8370    -1.1050     1.3610 h1         1 BWG       0.033700
     26 HO3          3.4140    -2.7180    -0.3100 ho         1 BWG       0.448000
     27 H4           4.1850    -0.1190    -0.3540 h1         1 BWG       0.076700
     28 HO4          4.4230    -0.9530     1.9340 ho         1 BWG       0.523000
     29 H5           2.0360     1.4690     1.1600 h1         1 BWG       0.056700
     30 H6           4.2110     2.6450     1.1320 h1         1 BWG       0.036200
     31 H6A          4.3590     2.3880    -0.6110 h1         1 BWG       0.036200
     32 HO6          3.5960     4.5070    -0.1460 ho         1 BWG       0.503000
     33 H15         -3.3950    -2.0410    -1.5360 h4         1 BWG       0.057100
     34 H20         -5.6020     1.2000     1.0970 hc         1 BWG       0.062700
     35 H20A        -6.8700    -0.0530     1.4240 hc         1 BWG       0.062700
     36 H20B        -5.2730     0.0130     2.2800 hc         1 BWG       0.062700
@<TRIPOS>BOND
     1     1     2 1   
     2     1     3 1   
     3     1    10 1   
     4     1    21 1   
     5     2    13 1   
     6     2    22 1   
     7     3     4 1   
     8     3     5 1   
     9     3    23 1   
    10     4    24 1   
    11     5     6 1   
    12     5     7 1   
    13     5    25 1   
    14     6    26 1   
    15     7     8 1   
    16     7     9 1   
    17     7    27 1   
    18     8    28 1   
    19     9    10 1   
    20     9    11 1   
    21     9    29 1   
    22    11    12 1   
    23    11    30 1   
    24    11    31 1   
    25    12    32 1   
    26    13    14 1   
    27    13    17 2   
    28    14    16 1   
    29    15    16 2   
    30    15    17 1   
    31    15    33 1   
    32    16    18 1   
    33    18    19 2   
    34    18    20 1   
    35    20    34 1   
    36    20    35 1   
    37    20    36 1   
@<TRIPOS>SUBSTRUCTURE
     1 BWG         1 TEMP              0 ****  ****    0 ROOT
