@<TRIPOS>MOLECULE
BWG
   36    37     1     0     0
SMALL
abcg2


@<TRIPOS>ATOM
      1 C1           1.0730    -0.7310    -0.8910 c6         1 BWG       0.429500
      2 N1           0.0230    -0.8190     0.0950 nu         1 BWG      -0.956100
      3 C2           2.1920    -1.7280    -0.5570 c6         1 BWG       0.107300
      4 O2           3.0720    -1.8440    -1.6410 oh         1 BWG      -0.683000
      5 C3           2.9820    -1.2220     0.6490 c6         1 BWG       0.140300
      6 O3           4.1110    -2.0130     0.9220 oh         1 BWG      -0.644000
      7 C4           3.4580     0.2100     0.4250 c6         1 BWG       0.143300
      8 O4           4.0520     0.7310     1.5900 oh         1 BWG      -0.722000
      9 C5           2.2590     1.0930     0.0760 c6         1 BWG       0.165300
     10 O5           1.5730     0.5660    -1.0440 os         1 BWG      -0.413000
     11 C6           2.6840     2.5030    -0.2780 c3         1 BWG       0.173600
     12 O6           1.5350     3.2870    -0.4910 oh         1 BWG      -0.707000
     13 C13         -1.2240    -0.3920    -0.1570 cc         1 BWG       0.738300
     14 S14         -2.4730    -0.5110     1.0440 ss         1 BWG      -0.099400
     15 C15         -2.9180     0.4290    -1.2660 cd         1 BWG       0.403900
     16 C16         -3.5910     0.1780    -0.1030 cc         1 BWG      -0.364600
     17 N17         -1.6060     0.1190    -1.3000 nd         1 BWG      -0.725000
     18 C18         -5.0040     0.4210     0.1640 c          1 BWG       0.622700
     19 O19         -5.7160     0.9220    -0.6880 o          1 BWG      -0.529100
     20 C20         -5.5260     0.0190     1.5150 c3         1 BWG      -0.196100
     21 H1           0.6400    -0.9880    -1.8610 h2         1 BWG       0.111700
     22 HN1          0.2260    -1.1840     1.0120 hn         1 BWG       0.498000
     23 H2           1.7330    -2.6960    -0.3090 h1         1 BWG       0.038700
     24 HO2          2.6290    -2.3260    -2.3460 ho         1 BWG       0.510000
     25 H3           2.3090    -1.2090     1.5210 h1         1 BWG       0.033700
     26 HO3          3.8300    -2.8130     1.3780 ho         1 BWG       0.448000
     27 H4           4.1640     0.2260    -0.4180 h1         1 BWG       0.076700
     28 HO4          4.7760     0.1480     1.8400 ho         1 BWG       0.523000
     29 H5           1.5900     1.1360     0.9490 h1         1 BWG       0.056700
     30 H6           3.2930     2.8960     0.5420 h1         1 BWG       0.036200
     31 H6A          3.3260     2.4670    -1.1700 h1         1 BWG       0.036200
     32 HO6          1.8200     4.1940    -0.6300 ho         1 BWG       0.503000
     33 H15         -3.3820     0.8580    -2.1430 h4         1 BWG       0.057100
     34 H20         -4.9640     0.5100     2.3120 hc         1 BWG       0.062700
     35 H20A        -6.5780     0.2740     1.6170 hc         1 BWG       0.062700
     36 H20B        -5.4120    -1.0580     1.6600 hc         1 BWG       0.062700
@<TRIPOS>BOND
     1     1     2 1   
     2     1     3 1   
     3     1    10 1   
     4     1    21 1   
     5     2    13 1   
     6     2    22 1   
     7     3     4 1   
     8     3     5 1   
     9     3    23 1   
    10     4    24 1   
    11     5     6 1   
    12     5     7 1   
    13     5    25 1   
    14     6    26 1   
    15     7     8 1   
    16     7     9 1   
    17     7    27 1   
    18     8    28 1   
    19     9    10 1   
    20     9    11 1   
    21     9    29 1   
    22    11    12 1   
    23    11    30 1   
    24    11    31 1   
    25    12    32 1   
    26    13    14 1   
    27    13    17 2   
    28    14    16 1   
    29    15    16 2   
    30    15    17 1   
    31    15    33 1   
    32    16    18 1   
    33    18    19 2   
    34    18    20 1   
    35    20    34 1   
    36    20    35 1   
    37    20    36 1   
@<TRIPOS>SUBSTRUCTURE
     1 BWG         1 TEMP              0 ****  ****    0 ROOT
