@<TRIPOS>MOLECULE
BWH
   99   103     1     0     0
SMALL
bcc


@<TRIPOS>ATOM
      1 N           -9.8680    -0.4530    -0.7200 ns         1 BWH      -0.471100
      2 C          -11.9420    -2.0440    -1.7690 c3         1 BWH      -0.058900
      3 O          -15.8080    -7.1040    -0.1500 oh         1 BWH      -0.491100
      4 C1         -11.2150    -2.4360    -0.5150 ce         1 BWH      -0.201400
      5 C10         -8.8940     0.5230    -0.5400 ca         1 BWH       0.105600
      6 C11         -9.0600     1.7120    -1.2600 ca         1 BWH      -0.184500
      7 C12         -8.1460     2.7380    -1.1540 ca         1 BWH      -0.055500
      8 C13         -7.0410     2.6230    -0.3110 ca         1 BWH      -0.187600
      9 C14         -6.8710     1.4340     0.3910 ca         1 BWH      -0.055500
     10 C15         -7.7750     0.3900     0.2850 ca         1 BWH      -0.184500
     11 C16         -6.0840     3.7600    -0.2370 c          1 BWH       0.696700
     12 C17         -4.3370     4.8410     1.1120 c3         1 BWH       0.036700
     13 C18         -4.6930     5.7290     2.3110 c3         1 BWH      -0.030300
     14 C19         -5.9710     6.3880     2.1040 c1         1 BWH       0.207700
     15 C2         -11.5340    -3.4860     0.2590 cf         1 BWH      -0.019200
     16 C20         -3.0020     4.1440     1.3870 c          1 BWH       0.659100
     17 C21         -0.7770     3.8220     0.3370 ca         1 BWH       0.086600
     18 C22         -0.0530     4.1560    -0.8120 ca         1 BWH      -0.178000
     19 C23          1.2340     3.7000    -0.9910 ca         1 BWH      -0.059000
     20 C24          1.8380     2.8780    -0.0400 ca         1 BWH      -0.176600
     21 C25          1.1150     2.5550     1.1050 ca         1 BWH      -0.059000
     22 C26         -0.1770     3.0160     1.3040 ca         1 BWH      -0.178000
     23 C27          3.2340     2.4300    -0.2960 c          1 BWH       0.692700
     24 C28          4.8490     0.6660     0.3440 ca         1 BWH       0.118600
     25 C29          4.8800    -0.6310     0.8570 ca         1 BWH      -0.040900
     26 C3         -12.6640    -4.4010     0.1360 ca         1 BWH      -0.114800
     27 C30          6.0720    -1.3580     0.9130 ca         1 BWH       0.229100
     28 C31          7.2590    -0.7890     0.4110 ca         1 BWH      -0.280600
     29 C32          7.2040     0.5200    -0.0750 ca         1 BWH      -0.033000
     30 C33          6.0380     1.2500    -0.1130 ca         1 BWH      -0.204000
     31 C34          8.4940    -1.6000     0.4550 c          1 BWH       0.695700
     32 C35         10.8670    -1.6330    -0.2690 ca         1 BWH       0.066600
     33 C36         11.8360    -0.7440    -0.7400 ca         1 BWH      -0.064900
     34 C37         13.1670    -1.1460    -0.8870 ca         1 BWH       0.226100
     35 C38         13.5300    -2.4620    -0.5510 ca         1 BWH      -0.274600
     36 C39         12.5480    -3.3300    -0.0910 ca         1 BWH      -0.038000
     37 C4         -12.4960    -5.7310     0.5330 ca         1 BWH      -0.066500
     38 C40         11.2270    -2.9460     0.0510 ca         1 BWH      -0.219000
     39 C41         14.9620    -2.9000    -0.7000 c          1 BWH       0.936200
     40 C42         11.7190     1.5010    -0.0730 c3         1 BWH       0.120700
     41 C43          3.0650    -2.0580     0.4380 c3         1 BWH       0.118700
     42 C5         -13.5220    -6.6540     0.4360 ca         1 BWH      -0.200000
     43 C6         -14.7710    -6.2570    -0.0380 ca         1 BWH       0.154100
     44 C7         -14.9720    -4.9260    -0.4010 ca         1 BWH      -0.200000
     45 C8         -13.9330    -4.0190    -0.3140 ca         1 BWH      -0.066500
     46 C9         -10.0190    -1.6490    -0.0800 c          1 BWH       0.682300
     47 N1          -5.3380     3.8320     0.8910 ns         1 BWH      -0.575900
     48 N2          -6.9840     6.9050     1.9330 n1         1 BWH      -0.356800
     49 N4           3.6190     1.3080     0.3750 ns         1 BWH      -0.465100
     50 N5           9.5690    -1.1170    -0.1980 ns         1 BWH      -0.431100
     51 O1          -9.2520    -2.0320     0.7870 o          1 BWH      -0.581100
     52 O10          6.0170    -2.5750     1.4460 oh         1 BWH      -0.509100
     53 O11          3.7310    -1.1760     1.3420 os         1 BWH      -0.331900
     54 O2          -5.9940     4.5800    -1.1380 o          1 BWH      -0.600100
     55 O4           3.9570     3.0260    -1.0730 o          1 BWH      -0.577100
     56 O5           8.5160    -2.6760     1.0620 o          1 BWH      -0.646100
     57 O6          15.2770    -4.0560    -0.4070 o          1 BWH      -0.796300
     58 O7          15.7640    -2.0090    -1.1310 o          1 BWH      -0.796300
     59 O8          14.0620    -0.2770    -1.3380 oh         1 BWH      -0.581100
     60 O9          11.4600     0.5240    -1.0790 os         1 BWH      -0.339900
     61 H1         -10.5850    -0.2020    -1.3830 hn         1 BWH       0.322500
     62 H2         -12.6120    -1.1920    -1.6240 hc         1 BWH       0.046700
     63 H3         -11.2440    -1.7840    -2.5670 hc         1 BWH       0.046700
     64 H4         -12.5460    -2.8670    -2.1450 hc         1 BWH       0.046700
     65 H5         -15.5530    -7.9900     0.1300 ho         1 BWH       0.429000
     66 H6          -9.9190     1.8320    -1.9100 ha         1 BWH       0.151500
     67 H7          -8.3010     3.6430    -1.7260 ha         1 BWH       0.144500
     68 H8          -6.0060     1.2770     1.0220 ha         1 BWH       0.144500
     69 H9          -7.5940    -0.5150     0.8400 ha         1 BWH       0.151500
     70 H10         -4.2850     5.4600     0.2170 h1         1 BWH       0.098700
     71 H11         -4.7490     5.1400     3.2290 hc         1 BWH       0.088200
     72 H12         -3.9270     6.4930     2.4580 hc         1 BWH       0.088200
     73 H13        -10.8600    -3.7100     1.0800 ha         1 BWH       0.152000
     74 H14         -0.5090     4.7790    -1.5720 ha         1 BWH       0.150500
     75 H15          1.7710     3.9790    -1.8870 ha         1 BWH       0.150000
     76 H16          1.5520     1.9590     1.8960 ha         1 BWH       0.150000
     77 H17         -0.6930     2.7480     2.2100 ha         1 BWH       0.150500
     78 H18          8.0970     1.0230    -0.4210 ha         1 BWH       0.139000
     79 H19          6.0570     2.2590    -0.4860 ha         1 BWH       0.166000
     80 H20         12.8270    -4.3450     0.1610 ha         1 BWH       0.145000
     81 H21        -11.5350    -6.0560     0.9140 ha         1 BWH       0.136000
     82 H22         10.4950    -3.6550     0.3990 ha         1 BWH       0.146000
     83 H23         12.7900     1.6410     0.0840 h1         1 BWH       0.026700
     84 H24         11.2870     2.4380    -0.4180 h1         1 BWH       0.026700
     85 H25         11.2550     1.2270     0.8780 h1         1 BWH       0.026700
     86 H26          3.6540    -2.9550     0.2430 h1         1 BWH       0.036033
     87 H27          2.1280    -2.3460     0.9100 h1         1 BWH       0.036033
     88 H28          2.8450    -1.5650    -0.5120 h1         1 BWH       0.036033
     89 H29        -13.3510    -7.6810     0.7370 ha         1 BWH       0.141500
     90 H30        -15.9480    -4.6030    -0.7400 ha         1 BWH       0.141500
     91 H31        -14.1300    -2.9870    -0.5710 ha         1 BWH       0.136000
     92 H32         -5.5250     3.1980     1.6530 hn         1 BWH       0.333500
     93 H33         -2.3380     4.9370    -0.3390 hn         1 BWH       0.327500
     94 H34          2.9140     0.8150     0.9030 hn         1 BWH       0.335500
     95 H35          9.4590    -0.2490    -0.6990 hn         1 BWH       0.332500
     96 H36          6.9450    -2.9170     1.4570 ho         1 BWH       0.489000
     97 H38         14.9360    -0.8320    -1.3360 ho         1 BWH       0.513000
     98 N3          -2.0690     4.3390     0.4290 ns         1 BWH      -0.459100
     99 O3          -2.8560     3.4660     2.3840 o          1 BWH      -0.576100
@<TRIPOS>BOND
     1     1     5 1   
     2     1    46 1   
     3     1    61 1   
     4     2     4 1   
     5     2    62 1   
     6     2    63 1   
     7     2    64 1   
     8     3    43 1   
     9     3    65 1   
    10     4    15 2   
    11     4    46 1   
    12     5     6 ar  
    13     5    10 ar  
    14     6     7 ar  
    15     6    66 1   
    16     7     8 ar  
    17     7    67 1   
    18     8     9 ar  
    19     8    11 1   
    20     9    10 ar  
    21     9    68 1   
    22    10    69 1   
    23    11    47 1   
    24    11    54 2   
    25    12    13 1   
    26    12    16 1   
    27    12    47 1   
    28    12    70 1   
    29    13    14 1   
    30    13    71 1   
    31    13    72 1   
    32    14    48 3   
    33    15    26 1   
    34    15    73 1   
    35    16    98 1   
    36    16    99 2   
    37    17    18 ar  
    38    17    22 ar  
    39    17    98 1   
    40    18    19 ar  
    41    18    74 1   
    42    19    20 ar  
    43    19    75 1   
    44    20    21 ar  
    45    20    23 1   
    46    21    22 ar  
    47    21    76 1   
    48    22    77 1   
    49    23    49 1   
    50    23    55 2   
    51    24    25 ar  
    52    24    30 ar  
    53    24    49 1   
    54    25    27 ar  
    55    25    53 1   
    56    26    37 ar  
    57    26    45 ar  
    58    27    28 ar  
    59    27    52 1   
    60    28    29 ar  
    61    28    31 1   
    62    29    30 ar  
    63    29    78 1   
    64    30    79 1   
    65    31    50 1   
    66    31    56 2   
    67    32    33 ar  
    68    32    38 ar  
    69    32    50 1   
    70    33    34 ar  
    71    33    60 1   
    72    34    35 ar  
    73    34    59 1   
    74    35    36 ar  
    75    35    39 1   
    76    36    38 ar  
    77    36    80 1   
    78    37    42 ar  
    79    37    81 1   
    80    38    82 1   
    81    39    57 1   
    82    39    58 1   
    83    40    60 1   
    84    40    83 1   
    85    40    84 1   
    86    40    85 1   
    87    41    53 1   
    88    41    86 1   
    89    41    87 1   
    90    41    88 1   
    91    42    43 ar  
    92    42    89 1   
    93    43    44 ar  
    94    44    45 ar  
    95    44    90 1   
    96    45    91 1   
    97    46    51 2   
    98    47    92 1   
    99    49    94 1   
   100    50    95 1   
   101    52    96 1   
   102    59    97 1   
   103    93    98 1   
@<TRIPOS>SUBSTRUCTURE
     1 BWH         1 TEMP              0 ****  ****    0 ROOT
