@<TRIPOS>MOLECULE
BWH
   99   103     1     0     0
SMALL
No Charge or Current Charge


@<TRIPOS>ATOM
      1 N          -10.9170    -0.4000    -0.4970 ns         1 BWH      -0.145000
      2 C          -13.2670    -1.6640    -1.4540 c3         1 BWH      -0.058900
      3 O          -17.5440    -6.6260    -0.2600 oh         1 BWH      -0.530100
      4 C1         -12.5140    -2.2540    -0.2560 ce         1 BWH      -0.201400
      5 C10         -9.8160     0.4960    -0.4100 ca         1 BWH       0.013000
      6 C11         -9.9000     1.7000    -1.1290 ca         1 BWH      -0.166500
      7 C12         -8.8510     2.6340    -1.0970 ca         1 BWH      -0.037500
      8 C13         -7.6830     2.3840    -0.3450 ca         1 BWH      -0.187600
      9 C14         -7.5970     1.1680     0.3740 ca         1 BWH      -0.037500
     10 C15         -8.6500     0.2360     0.3390 ca         1 BWH      -0.166500
     11 C16         -6.5740     3.4140    -0.3330 c          1 BWH       0.629700
     12 C17         -4.2560     3.9810     0.5540 c3         1 BWH       0.036700
     13 C18         -4.3400     4.8470     1.8450 c3         1 BWH      -0.030300
     14 C19         -5.4430     5.8160     1.8490 c1         1 BWH       0.296900
     15 C2         -12.9330    -3.3990     0.3760 cf         1 BWH      -0.069200
     16 C20         -2.9630     3.1140     0.5520 c          1 BWH       0.592100
     17 C21         -0.4300     3.4480     0.2320 ca         1 BWH      -0.006000
     18 C22          0.5040     4.4300    -0.1390 ca         1 BWH      -0.160000
     19 C23          1.8730     4.1290    -0.2270 ca         1 BWH      -0.041000
     20 C24          2.3470     2.8290     0.0580 ca         1 BWH      -0.176600
     21 C25          1.4050     1.8410     0.4360 ca         1 BWH      -0.041000
     22 C26          0.0360     2.1490     0.5220 ca         1 BWH      -0.160000
     23 C27          3.8340     2.5370    -0.0470 c          1 BWH       0.625700
     24 C28          5.4690     0.5640     0.2740 ca         1 BWH       0.026000
     25 C29          5.4680    -0.8010     0.6350 ca         1 BWH      -0.040900
     26 C3         -14.1460    -4.2230     0.1850 ca         1 BWH      -0.114800
     27 C30          6.7070    -1.5200     0.6730 ca         1 BWH       0.229100
     28 C31          7.9290    -0.8730     0.3520 ca         1 BWH      -0.280600
     29 C32          7.8930     0.4960    -0.0060 ca         1 BWH      -0.015000
     30 C33          6.6840     1.1980    -0.0430 ca         1 BWH      -0.186000
     31 C34          9.2530    -1.6240     0.3890 c          1 BWH       0.628700
     32 C35         11.7710    -1.2160    -0.0280 ca         1 BWH      -0.026000
     33 C36         12.6570    -0.1820    -0.4080 ca         1 BWH      -0.064900
     34 C37         14.0600    -0.4580    -0.5070 ca         1 BWH       0.226100
     35 C38         14.5600    -1.7550    -0.2270 ca         1 BWH      -0.274600
     36 C39         13.6490    -2.7640     0.1500 ca         1 BWH      -0.020000
     37 C4         -14.0580    -5.6200     0.3510 ca         1 BWH      -0.048500
     38 C40         12.2780    -2.4990     0.2480 ca         1 BWH      -0.201000
     39 C41         16.0360    -2.0930    -0.3190 c          1 BWH       0.725600
     40 C42         12.7560     2.2520    -1.0610 c3         1 BWH       0.143900
     41 C43          3.9610    -2.7050     1.3230 c3         1 BWH       0.141900
     42 C5         -15.1970    -6.4310     0.1970 ca         1 BWH      -0.182000
     43 C6         -16.4350    -5.8490    -0.1110 ca         1 BWH       0.154100
     44 C7         -16.5380    -4.4590    -0.2550 ca         1 BWH      -0.182000
     45 C8         -15.4010    -3.6460    -0.1020 ca         1 BWH      -0.048500
     46 C9         -11.2230    -1.5810     0.1710 c          1 BWH       0.615300
     47 N1          -5.4520     3.1100     0.4090 ns         1 BWH      -0.508900
     48 N2          -6.3040     6.6000     1.8830 n1         1 BWH      -0.446000
     49 N4           4.2130     1.2340     0.2500 ns         1 BWH      -0.139000
     50 N5          10.3860    -0.8920     0.0560 ns         1 BWH      -0.105000
     51 O1         -10.5210    -2.0490     1.0610 o          1 BWH      -0.581100
     52 O10          6.7520    -2.8390     1.0170 oh         1 BWH      -0.548100
     53 O11          4.2140    -1.3420     0.9320 os         1 BWH      -0.355100
     54 O2          -6.6560     4.4650    -0.9520 o          1 BWH      -0.600100
     55 O4           4.6260     3.4130    -0.3750 o          1 BWH      -0.577100
     56 O5           9.2840    -2.8130     0.6990 o          1 BWH      -0.646100
     57 O6          16.3940    -3.2320    -0.0630 o          1 BWH      -0.691000
     58 O7          16.8140    -1.2070    -0.6470 o          1 BWH      -0.691000
     59 O8          14.9570     0.5010    -0.8690 oh         1 BWH      -0.620100
     60 O9          12.0600     1.0560    -0.6610 os         1 BWH      -0.363100
     61 H1         -11.6100    -0.1230    -1.1780 hn         1 BWH       0.156000
     62 H2         -13.9090    -0.8280    -1.1500 hc         1 BWH       0.046700
     63 H3         -12.5910    -1.3020    -2.2380 hc         1 BWH       0.046700
     64 H4         -13.9010    -2.4100    -1.9480 hc         1 BWH       0.046700
     65 H5         -17.2860    -7.5630    -0.1220 ho         1 BWH       0.468000
     66 H6         -10.7880     1.9200    -1.7180 ha         1 BWH       0.133500
     67 H7          -8.9520     3.5580    -1.6640 ha         1 BWH       0.126500
     68 H8          -6.7190     0.9220     0.9680 ha         1 BWH       0.126500
     69 H9          -8.5320    -0.6860     0.8980 ha         1 BWH       0.133500
     70 H10         -4.1850     4.6450    -0.3190 h1         1 BWH       0.098700
     71 H11         -4.4460     4.1960     2.7200 hc         1 BWH       0.088200
     72 H12         -3.4080     5.4090     1.9810 hc         1 BWH       0.088200
     73 H13        -12.2950    -3.7870     1.1750 ha         1 BWH       0.202000
     74 H14          0.1700     5.4410    -0.3640 ha         1 BWH       0.132500
     75 H15          2.5660     4.9160    -0.5190 ha         1 BWH       0.132000
     76 H16          1.7120     0.8240     0.6700 ha         1 BWH       0.132000
     77 H17         -0.6450     1.3590     0.8220 ha         1 BWH       0.132500
     78 H18          8.7960     1.0450    -0.2620 ha         1 BWH       0.121000
     79 H19          6.7180     2.2450    -0.3250 ha         1 BWH       0.148000
     80 H20         13.9980    -3.7710     0.3720 ha         1 BWH       0.127000
     81 H21        -13.1020    -6.0820     0.5900 ha         1 BWH       0.118000
     82 H22         11.6260    -3.3140     0.5420 ha         1 BWH       0.128000
     83 H23         13.2720     2.1050    -2.0180 h1         1 BWH       0.026700
     84 H24         12.0420     3.0750    -1.1900 h1         1 BWH       0.026700
     85 H25         13.4830     2.5570    -0.2980 h1         1 BWH       0.026700
     86 H26          4.4840    -2.9490     2.2560 h1         1 BWH       0.036033
     87 H27          2.8880    -2.8540     1.4940 h1         1 BWH       0.036033
     88 H28          4.2740    -3.4040     0.5370 h1         1 BWH       0.036033
     89 H29        -15.1070    -7.5080     0.3190 ha         1 BWH       0.123500
     90 H30        -17.5010    -4.0070    -0.4780 ha         1 BWH       0.123500
     91 H31        -15.5070    -2.5680    -0.1870 ha         1 BWH       0.118000
     92 H32         -5.4330     2.2000     0.8520 hn         1 BWH       0.333500
     93 H33         -1.9480     4.8200     0.1400 hn         1 BWH       0.161000
     94 H34          3.4450     0.6290     0.5040 hn         1 BWH       0.169000
     95 H35         10.1990     0.0730    -0.1760 hn         1 BWH       0.166000
     96 H36          7.7130    -3.0950     0.9660 ho         1 BWH       0.528000
     97 H38         15.8410     0.0310    -0.8540 ho         1 BWH       0.552000
     98 N3          -1.7980     3.8320     0.3020 ns         1 BWH      -0.133000
     99 O3          -2.9950     1.9020     0.7480 o          1 BWH      -0.576100
@<TRIPOS>BOND
     1     1     5 1   
     2     1    46 1   
     3     1    61 1   
     4     2     4 1   
     5     2    62 1   
     6     2    63 1   
     7     2    64 1   
     8     3    43 1   
     9     3    65 1   
    10     4    15 2   
    11     4    46 1   
    12     5     6 ar  
    13     5    10 ar  
    14     6     7 ar  
    15     6    66 1   
    16     7     8 ar  
    17     7    67 1   
    18     8     9 ar  
    19     8    11 1   
    20     9    10 ar  
    21     9    68 1   
    22    10    69 1   
    23    11    47 1   
    24    11    54 2   
    25    12    13 1   
    26    12    16 1   
    27    12    47 1   
    28    12    70 1   
    29    13    14 1   
    30    13    71 1   
    31    13    72 1   
    32    14    48 3   
    33    15    26 1   
    34    15    73 1   
    35    16    98 1   
    36    16    99 2   
    37    17    18 ar  
    38    17    22 ar  
    39    17    98 1   
    40    18    19 ar  
    41    18    74 1   
    42    19    20 ar  
    43    19    75 1   
    44    20    21 ar  
    45    20    23 1   
    46    21    22 ar  
    47    21    76 1   
    48    22    77 1   
    49    23    49 1   
    50    23    55 2   
    51    24    25 ar  
    52    24    30 ar  
    53    24    49 1   
    54    25    27 ar  
    55    25    53 1   
    56    26    37 ar  
    57    26    45 ar  
    58    27    28 ar  
    59    27    52 1   
    60    28    29 ar  
    61    28    31 1   
    62    29    30 ar  
    63    29    78 1   
    64    30    79 1   
    65    31    50 1   
    66    31    56 2   
    67    32    33 ar  
    68    32    38 ar  
    69    32    50 1   
    70    33    34 ar  
    71    33    60 1   
    72    34    35 ar  
    73    34    59 1   
    74    35    36 ar  
    75    35    39 1   
    76    36    38 ar  
    77    36    80 1   
    78    37    42 ar  
    79    37    81 1   
    80    38    82 1   
    81    39    57 1   
    82    39    58 1   
    83    40    60 1   
    84    40    83 1   
    85    40    84 1   
    86    40    85 1   
    87    41    53 1   
    88    41    86 1   
    89    41    87 1   
    90    41    88 1   
    91    42    43 ar  
    92    42    89 1   
    93    43    44 ar  
    94    44    45 ar  
    95    44    90 1   
    96    45    91 1   
    97    46    51 2   
    98    47    92 1   
    99    49    94 1   
   100    50    95 1   
   101    52    96 1   
   102    59    97 1   
   103    93    98 1   
@<TRIPOS>SUBSTRUCTURE
     1 BWH         1 TEMP              0 ****  ****    0 ROOT
