@<TRIPOS>MOLECULE
BWK
   21    21     1     0     0
SMALL
abcg2


@<TRIPOS>ATOM
      1 C1          -2.0480    -9.6010   -15.5590 c3         1 BWK       0.054900
      2 N1          -1.0370    -9.0710   -16.4720 na         1 BWK       0.100100
      3 N            0.2180    -8.7930   -16.0540 n2         1 BWK      -0.066800
      4 N2           0.8780    -8.3510   -17.0480 n2         1 BWK      -0.048800
      5 N3           0.0530    -8.3410   -18.1060 na         1 BWK      -0.004200
      6 C           -1.1500    -8.7890   -17.7670 cc         1 BWK      -0.042600
      7 C2          -2.3390    -8.9450   -18.6340 c3         1 BWK      -0.104100
      8 C3          -3.4500    -7.9160   -18.4390 c          1 BWK       0.594100
      9 O           -4.6200    -8.1990   -18.5730 o          1 BWK      -0.448100
     10 N4          -3.0510    -6.6550   -18.0980 ns         1 BWK      -0.432300
     11 N5          -4.0670    -5.6780   -18.0480 nz         1 BWK      -0.770200
     12 H12         -1.5480    -9.8230   -14.6220 h1         1 BWK       0.115033
     13 H13         -2.8210    -8.8500   -15.4080 h1         1 BWK       0.115033
     14 H11         -2.4700   -10.5070   -15.9890 h1         1 BWK       0.115033
     15 H21         -2.7860    -9.9250   -18.4630 hc         1 BWK       0.160200
     16 H22         -2.0210    -8.8980   -19.6780 hc         1 BWK       0.160200
     17 H4          -2.1170    -6.2870   -18.2250 hn         1 BWK       0.382500
     18 H54         -4.0650    -5.1930   -17.1450 hn         1 BWK       0.553667
     19 H53         -3.9740    -4.9920   -18.8060 hn         1 BWK       0.553667
     20 H3           0.3730    -8.0260   -19.0170 hn         1 BWK       0.458000
     21 H52         -4.9660    -6.1740   -18.1640 hn         1 BWK       0.553667
@<TRIPOS>BOND
     1     1     2 1   
     2     1    12 1   
     3     1    13 1   
     4     1    14 1   
     5     2     3 1   
     6     2     6 2   
     7     3     4 2   
     8     4     5 1   
     9     5     6 1   
    10     5    20 1   
    11     6     7 1   
    12     7     8 1   
    13     7    15 1   
    14     7    16 1   
    15     8     9 2   
    16     8    10 1   
    17    10    11 1   
    18    10    17 1   
    19    11    18 1   
    20    11    19 1   
    21    11    21 1   
@<TRIPOS>SUBSTRUCTURE
     1 BWK         1 TEMP              0 ****  ****    0 ROOT
