@<TRIPOS>MOLECULE
BWK
   21    21     1     0     0
SMALL
No Charge or Current Charge


@<TRIPOS>ATOM
      1 C1          -2.1140   -10.0440   -15.6280 c3         1 BWK       0.054900
      2 N1          -1.0200    -9.3930   -16.3630 na         1 BWK       0.100100
      3 N            0.2330    -9.2950   -15.7970 n2         1 BWK      -0.066800
      4 N2           1.0000    -8.6960   -16.6190 n2         1 BWK      -0.048800
      5 N3           0.2600    -8.3870   -17.7390 na         1 BWK      -0.004200
      6 C           -1.0370    -8.8140   -17.6070 cc         1 BWK      -0.042600
      7 C2          -2.1850    -8.6800   -18.5870 c3         1 BWK      -0.104100
      8 C3          -3.2430    -7.6700   -18.1490 c          1 BWK       0.594100
      9 O           -4.0360    -7.9050   -17.2510 o          1 BWK      -0.448100
     10 N4          -3.2460    -6.4440   -18.8200 ns         1 BWK      -0.432300
     11 N5          -4.2810    -5.4080   -18.4060 nz         1 BWK      -0.770200
     12 H12         -1.7050   -10.6980   -14.8480 h1         1 BWK       0.115033
     13 H13         -2.7470    -9.2810   -15.1610 h1         1 BWK       0.115033
     14 H11         -2.7180   -10.6460   -16.3150 h1         1 BWK       0.115033
     15 H21         -2.6830    -9.6500   -18.6910 hc         1 BWK       0.160200
     16 H22         -1.7940    -8.3870   -19.5680 hc         1 BWK       0.160200
     17 H4          -2.5600    -6.2770   -19.5640 hn         1 BWK       0.382500
     18 H54         -3.9380    -4.5370   -17.9580 hn         1 BWK       0.553667
     19 H53         -5.0160    -5.1590   -19.0950 hn         1 BWK       0.553667
     20 H3           0.7210    -7.9050   -18.5070 hn         1 BWK       0.458000
     21 H52         -4.8990    -5.7370   -17.6400 hn         1 BWK       0.553667
@<TRIPOS>BOND
     1     1     2 1   
     2     1    12 1   
     3     1    13 1   
     4     1    14 1   
     5     2     3 1   
     6     2     6 2   
     7     3     4 2   
     8     4     5 1   
     9     5     6 1   
    10     5    20 1   
    11     6     7 1   
    12     7     8 1   
    13     7    15 1   
    14     7    16 1   
    15     8     9 2   
    16     8    10 1   
    17    10    11 1   
    18    10    17 1   
    19    11    18 1   
    20    11    19 1   
    21    11    21 1   
@<TRIPOS>SUBSTRUCTURE
     1 BWK         1 TEMP              0 ****  ****    0 ROOT
