@<TRIPOS>MOLECULE
BWL
   71    73     1     0     0
SMALL
No Charge or Current Charge


@<TRIPOS>ATOM
      1 C1         100.0070    57.5080   191.4070 c3         1 BWL       0.145300
      2 C2          98.9800    56.4110   191.6810 ca         1 BWL      -0.053300
      3 C3          99.2920    55.3100   192.5020 ca         1 BWL      -0.096000
      4 C4          98.3380    54.3060   192.7400 ca         1 BWL      -0.100000
      5 C5          97.0450    54.3710   192.1650 cp         1 BWL      -0.073000
      6 C6          96.7480    55.4820   191.3370 ca         1 BWL      -0.100000
      7 C7          97.7010    56.4860   191.0980 ca         1 BWL      -0.096000
      8 C8          96.0220    53.3110   192.4370 cp         1 BWL       0.024000
      9 C9          94.6480    53.6320   192.5560 ca         1 BWL      -0.115000
     10 C10         93.6860    52.6420   192.8160 ca         1 BWL      -0.062500
     11 C11         94.0710    51.2930   192.9710 ca         1 BWL      -0.210300
     12 C12         95.4360    50.9580   192.8460 ca         1 BWL      -0.062500
     13 C13         96.3940    51.9530   192.5870 ca         1 BWL      -0.115000
     14 C14         93.0230    50.2080   193.2440 c3         1 BWL       0.356300
     15 F15         92.5400    49.6920   192.0920 f          1 BWL      -0.118333
     16 F17         93.5240    49.1760   193.9600 f          1 BWL      -0.118333
     17 F18         91.9630    50.6810   193.9400 f          1 BWL      -0.118333
     18 N19        100.7620    57.9870   192.5970 n          1 BWL      -0.407800
     19 C20        100.1890    59.1280   193.3790 c3         1 BWL       0.110000
     20 C21         98.6390    59.2110   193.5110 c3         1 BWL       0.169800
     21 N22         97.9800    58.1410   194.3160 n3         1 BWL      -0.732600
     22 C23         96.5020    58.1790   194.1910 c3         1 BWL       0.184300
     23 C24         95.7770    56.9160   194.7060 c3         1 BWL      -0.091600
     24 C25         98.4730    58.0450   195.7180 c3         1 BWL       0.184300
     25 C26         99.4840    56.9020   195.9280 c3         1 BWL      -0.091600
     26 C27        102.0740    57.5040   192.8340 c          1 BWL       0.634300
     27 O28        102.5300    56.5840   192.1680 o          1 BWL      -0.619100
     28 C29        102.8540    58.0920   193.9610 ce         1 BWL      -0.376200
     29 C30        103.5850    57.3830   194.8580 c2         1 BWL       0.160900
     30 O31        103.7040    56.0450   194.7920 oh         1 BWL      -0.534100
     31 C32        104.2660    58.1430   196.0360 c5         1 BWL       0.131900
     32 C33        103.3200    58.1630   197.2770 c5         1 BWL      -0.100400
     33 C34        102.5000    59.4630   197.0780 c5         1 BWL      -0.101400
     34 C35        103.5790    60.4610   196.5790 c5         1 BWL       0.127000
     35 N36        104.4630    59.5930   195.7710 n          1 BWL      -0.478800
     36 C37        105.4750    60.0910   194.9400 c          1 BWL       0.745000
     37 O38        106.2130    59.2950   194.3860 o          1 BWL      -0.725000
     38 H1         100.7070    57.1400   190.6470 h1         1 BWL       0.053200
     39 H2          99.5040    58.3680   190.9470 h1         1 BWL       0.053200
     40 H3         100.2720    55.2330   192.9640 ha         1 BWL       0.127500
     41 H4          98.6020    53.4790   193.3950 ha         1 BWL       0.106000
     42 H5          95.7710    55.5650   190.8680 ha         1 BWL       0.106000
     43 H6          97.4420    57.3260   190.4570 ha         1 BWL       0.127500
     44 H7          94.3230    54.6650   192.4580 ha         1 BWL       0.124500
     45 H8          92.6400    52.9290   192.8970 ha         1 BWL       0.123500
     46 H9          95.7610    49.9240   192.9440 ha         1 BWL       0.123500
     47 H10         97.4370    51.6640   192.4860 ha         1 BWL       0.124500
     48 H11        100.5940    59.1260   194.3940 h1         1 BWL       0.051700
     49 H12        100.5320    60.0550   192.9020 h1         1 BWL       0.051700
     50 H13         98.4020    60.1830   193.9630 h1         1 BWL       0.022700
     51 H14         98.2070    59.2350   192.5020 h1         1 BWL       0.022700
     52 H16         96.1010    59.0570   194.7150 h1         1 BWL       0.020950
     53 H17         96.2350    58.2890   193.1310 h1         1 BWL       0.020950
     54 H18         94.7190    56.9500   194.4230 hc         1 BWL       0.037367
     55 H19         96.2190    56.0140   194.2710 hc         1 BWL       0.037367
     56 H20         95.8290    56.8360   195.7970 hc         1 BWL       0.037367
     57 H21         98.9410    58.9910   196.0240 h1         1 BWL       0.020950
     58 H22         97.6450    57.8840   196.4180 h1         1 BWL       0.020950
     59 H23         99.8070    56.8710   196.9750 hc         1 BWL       0.037367
     60 H24         99.0250    55.9380   195.6810 hc         1 BWL       0.037367
     61 H25        100.3730    57.0280   195.3030 hc         1 BWL       0.037367
     62 H26        102.7170    59.1580   194.0880 ha         1 BWL       0.223000
     63 H27        104.2670    55.7580   195.5410 ho         1 BWL       0.453000
     64 H28        105.2210    57.6660   196.2960 h1         1 BWL       0.065700
     65 H29        103.9050    58.2200   198.2030 hc         1 BWL       0.034200
     66 H30        102.6890    57.2710   197.3510 hc         1 BWL       0.034200
     67 H31        102.0160    59.8010   198.0000 hc         1 BWL       0.029700
     68 H32        101.7100    59.3230   196.3340 hc         1 BWL       0.029700
     69 H33        104.1360    60.9000   197.4170 h1         1 BWL       0.028200
     70 H34        103.1360    61.2740   195.9880 h1         1 BWL       0.028200
     71 O1         105.5800    61.3000   194.8230 o          1 BWL      -0.725000
@<TRIPOS>BOND
     1     1     2 1   
     2     1    18 1   
     3     1    38 1   
     4     1    39 1   
     5     2     3 ar  
     6     2     7 ar  
     7     3     4 ar  
     8     3    40 1   
     9     4     5 ar  
    10     4    41 1   
    11     5     6 ar  
    12     5     8 1   
    13     6     7 ar  
    14     6    42 1   
    15     7    43 1   
    16     8     9 ar  
    17     8    13 ar  
    18     9    10 ar  
    19     9    44 1   
    20    10    11 ar  
    21    10    45 1   
    22    11    12 ar  
    23    11    14 1   
    24    12    13 ar  
    25    12    46 1   
    26    13    47 1   
    27    14    15 1   
    28    14    16 1   
    29    14    17 1   
    30    18    19 1   
    31    18    26 1   
    32    19    20 1   
    33    19    48 1   
    34    19    49 1   
    35    20    21 1   
    36    20    50 1   
    37    20    51 1   
    38    21    22 1   
    39    21    24 1   
    40    22    23 1   
    41    22    52 1   
    42    22    53 1   
    43    23    54 1   
    44    23    55 1   
    45    23    56 1   
    46    24    25 1   
    47    24    57 1   
    48    24    58 1   
    49    25    59 1   
    50    25    60 1   
    51    25    61 1   
    52    26    27 2   
    53    26    28 1   
    54    28    29 2   
    55    28    62 1   
    56    29    30 1   
    57    29    31 1   
    58    30    63 1   
    59    31    32 1   
    60    31    35 1   
    61    31    64 1   
    62    32    33 1   
    63    32    65 1   
    64    32    66 1   
    65    33    34 1   
    66    33    67 1   
    67    33    68 1   
    68    34    35 1   
    69    34    69 1   
    70    34    70 1   
    71    35    36 1   
    72    36    37 1   
    73    36    71 1   
@<TRIPOS>SUBSTRUCTURE
     1 BWL         1 TEMP              0 ****  ****    0 ROOT
