@<TRIPOS>MOLECULE
BWL
   71    73     1     0     0
SMALL
abcg2


@<TRIPOS>ATOM
      1 C1          99.9950    57.4070   191.3430 c3         1 BWL       0.145300
      2 C2          98.9420    56.3560   191.6000 ca         1 BWL      -0.053300
      3 C3          99.2250    55.2060   192.3370 ca         1 BWL      -0.096000
      4 C4          98.2590    54.2390   192.5420 ca         1 BWL      -0.100000
      5 C5          96.9730    54.3800   192.0170 cp         1 BWL      -0.073000
      6 C6          96.6920    55.5210   191.2680 ca         1 BWL      -0.100000
      7 C7          97.6660    56.4890   191.0630 ca         1 BWL      -0.096000
      8 C8          95.9500    53.3490   192.2720 cp         1 BWL       0.024000
      9 C9          94.6230    53.6920   192.5240 ca         1 BWL      -0.115000
     10 C10         93.6730    52.7210   192.8030 ca         1 BWL      -0.062500
     11 C11         94.0380    51.3820   192.8360 ca         1 BWL      -0.210300
     12 C12         95.3550    51.0220   192.5700 ca         1 BWL      -0.062500
     13 C13         96.2960    51.9960   192.2910 ca         1 BWL      -0.115000
     14 C14         93.0410    50.3070   193.1270 c3         1 BWL       0.356300
     15 F15         92.7200    49.6140   192.0230 f          1 BWL      -0.118333
     16 F17         93.5130    49.4140   194.0090 f          1 BWL      -0.118333
     17 F18         91.9000    50.7870   193.6300 f          1 BWL      -0.118333
     18 N19        100.6460    57.9350   192.5300 n          1 BWL      -0.407800
     19 C20        100.0950    59.1570   193.0900 c3         1 BWL       0.110000
     20 C21         98.6060    59.1120   193.4150 c3         1 BWL       0.169800
     21 N22         98.2230    58.1030   194.3760 n3         1 BWL      -0.732600
     22 C23         96.7880    57.8790   194.3760 c3         1 BWL       0.184300
     23 C24         96.3720    56.6080   195.0990 c3         1 BWL      -0.091600
     24 C25         98.7670    58.3150   195.7130 c3         1 BWL       0.184300
     25 C26         99.5940    57.1370   196.2050 c3         1 BWL      -0.091600
     26 C27        101.8280    57.3820   192.9250 c          1 BWL       0.634300
     27 O28        102.2380    56.3450   192.4090 o          1 BWL      -0.619100
     28 C29        102.5960    58.0810   193.9700 ce         1 BWL      -0.376200
     29 C30        103.2660    57.4580   194.9500 c2         1 BWL       0.160900
     30 O31        103.2300    56.1250   195.0880 oh         1 BWL      -0.534100
     31 C32        104.0310    58.1970   196.0280 c5         1 BWL       0.131900
     32 C33        103.2170    58.2560   197.3350 c5         1 BWL      -0.100400
     33 C34        102.4980    59.5950   197.2300 c5         1 BWL      -0.101400
     34 C35        103.5380    60.4900   196.5650 c5         1 BWL       0.127000
     35 N36        104.2860    59.5750   195.7260 n          1 BWL      -0.478800
     36 C37        105.4070    59.9740   194.9760 c          1 BWL       0.745000
     37 O38        106.0550    59.0610   194.4230 o          1 BWL      -0.725000
     38 H1         100.7580    56.9940   190.6820 h1         1 BWL       0.053200
     39 H2          99.5450    58.2450   190.8040 h1         1 BWL       0.053200
     40 H3         100.2080    55.0650   192.7630 ha         1 BWL       0.127500
     41 H4          98.5040    53.3730   193.1440 ha         1 BWL       0.106000
     42 H5          95.7120    55.6560   190.8280 ha         1 BWL       0.106000
     43 H6          97.4200    57.3670   190.4760 ha         1 BWL       0.127500
     44 H7          94.3230    54.7330   192.5320 ha         1 BWL       0.124500
     45 H8          92.6560    53.0300   193.0070 ha         1 BWL       0.123500
     46 H9          95.6610    49.9840   192.5770 ha         1 BWL       0.123500
     47 H10         97.3120    51.6940   192.0730 ha         1 BWL       0.124500
     48 H11        100.6490    59.4120   193.9900 h1         1 BWL       0.051700
     49 H12        100.2430    59.9850   192.3880 h1         1 BWL       0.051700
     50 H13         98.3400    60.1330   193.7410 h1         1 BWL       0.022700
     51 H14         98.0410    58.9390   192.4970 h1         1 BWL       0.022700
     52 H16         96.2410    58.7340   194.8090 h1         1 BWL       0.020950
     53 H17         96.4630    57.8000   193.3360 h1         1 BWL       0.020950
     54 H18         95.2950    56.4640   195.0040 hc         1 BWL       0.037367
     55 H19         96.8680    55.7380   194.6680 hc         1 BWL       0.037367
     56 H20         96.6020    56.6390   196.1650 hc         1 BWL       0.037367
     57 H21         99.3890    59.2160   195.7270 h1         1 BWL       0.020950
     58 H22         97.9590    58.5210   196.4260 h1         1 BWL       0.020950
     59 H23         99.9720    57.3190   197.2130 hc         1 BWL       0.037367
     60 H24         99.0040    56.2210   196.2270 hc         1 BWL       0.037367
     61 H25        100.4520    56.9690   195.5540 hc         1 BWL       0.037367
     62 H26        102.6640    59.1590   193.9620 ha         1 BWL       0.223000
     63 H27        103.7490    55.8490   195.8530 ho         1 BWL       0.453000
     64 H28        104.9690    57.6500   196.1880 h1         1 BWL       0.065700
     65 H29        103.9050    58.2610   198.1830 hc         1 BWL       0.034200
     66 H30        102.5410    57.4100   197.4720 hc         1 BWL       0.034200
     67 H31        102.1710    59.9790   198.1960 hc         1 BWL       0.029700
     68 H32        101.6120    59.5010   196.5970 hc         1 BWL       0.029700
     69 H33        104.1760    60.9670   197.3190 h1         1 BWL       0.028200
     70 H34        103.0750    61.2910   195.9840 h1         1 BWL       0.028200
     71 O1         105.6300    61.2030   194.9370 o          1 BWL      -0.725000
@<TRIPOS>BOND
     1     1     2 1   
     2     1    18 1   
     3     1    38 1   
     4     1    39 1   
     5     2     3 ar  
     6     2     7 ar  
     7     3     4 ar  
     8     3    40 1   
     9     4     5 ar  
    10     4    41 1   
    11     5     6 ar  
    12     5     8 1   
    13     6     7 ar  
    14     6    42 1   
    15     7    43 1   
    16     8     9 ar  
    17     8    13 ar  
    18     9    10 ar  
    19     9    44 1   
    20    10    11 ar  
    21    10    45 1   
    22    11    12 ar  
    23    11    14 1   
    24    12    13 ar  
    25    12    46 1   
    26    13    47 1   
    27    14    15 1   
    28    14    16 1   
    29    14    17 1   
    30    18    19 1   
    31    18    26 1   
    32    19    20 1   
    33    19    48 1   
    34    19    49 1   
    35    20    21 1   
    36    20    50 1   
    37    20    51 1   
    38    21    22 1   
    39    21    24 1   
    40    22    23 1   
    41    22    52 1   
    42    22    53 1   
    43    23    54 1   
    44    23    55 1   
    45    23    56 1   
    46    24    25 1   
    47    24    57 1   
    48    24    58 1   
    49    25    59 1   
    50    25    60 1   
    51    25    61 1   
    52    26    27 2   
    53    26    28 1   
    54    28    29 2   
    55    28    62 1   
    56    29    30 1   
    57    29    31 1   
    58    30    63 1   
    59    31    32 1   
    60    31    35 1   
    61    31    64 1   
    62    32    33 1   
    63    32    65 1   
    64    32    66 1   
    65    33    34 1   
    66    33    67 1   
    67    33    68 1   
    68    34    35 1   
    69    34    69 1   
    70    34    70 1   
    71    35    36 1   
    72    36    37 1   
    73    36    71 1   
@<TRIPOS>SUBSTRUCTURE
     1 BWL         1 TEMP              0 ****  ****    0 ROOT
