@<TRIPOS>MOLECULE
BWM
   34    35     1     0     0
SMALL
bcc


@<TRIPOS>ATOM
      1 C4          -1.5830     2.6000     0.3650 ca         1 BWM      -0.121000
      2 C5          -2.8330     2.5540    -0.2360 ca         1 BWM      -0.118000
      3 C6          -3.2830     1.3740    -0.8090 ca         1 BWM      -0.119000
      4 N1          -0.4420    -0.8800    -0.1510 na         1 BWM      -0.290800
      5 C7          -2.4780     0.2450    -0.7700 ca         1 BWM      -0.121000
      6 C8          -1.2300     0.3010    -0.1660 ca         1 BWM       0.007800
      7 N2           0.8060    -2.5250    -0.8230 nc         1 BWM      -0.354500
      8 C9           0.2890    -1.3870    -1.1840 cd         1 BWM       0.401800
      9 C10          0.4380    -0.7240    -2.4990 c3         1 BWM      -0.120400
     10 C11         -0.3340    -1.7960     0.8530 cd         1 BWM       0.401800
     11 C12         -0.9830    -1.6560     2.1760 c3         1 BWM      -0.120400
     12 N3           0.4100    -2.7840     0.4520 nc         1 BWM      -0.354500
     13 O            2.5500    -0.4490     1.3190 o          1 BWM      -0.588100
     14 C1           2.5680     0.2900     0.3460 c          1 BWM       0.671100
     15 C            3.5910     0.1370    -0.7510 c3         1 BWM      -0.180100
     16 N            1.6780     1.2850     0.1610 ns         1 BWM      -0.582900
     17 C3          -0.7580     1.4810     0.4110 ca         1 BWM      -0.094300
     18 H1          -1.2350     3.5280     0.8020 ha         1 BWM       0.137000
     19 H2          -3.4510     3.4410    -0.2620 ha         1 BWM       0.139000
     20 H3          -4.2540     1.3280    -1.2830 ha         1 BWM       0.141000
     21 H4          -2.8180    -0.6860    -1.2050 ha         1 BWM       0.149000
     22 H5           0.8060     0.2970    -2.3920 hc         1 BWM       0.056867
     23 H6           1.1410    -1.2840    -3.1110 hc         1 BWM       0.056867
     24 H7          -0.5120    -0.6740    -3.0330 hc         1 BWM       0.056867
     25 H8          -2.0340    -1.3860     2.0820 hc         1 BWM       0.056867
     26 H9          -0.9160    -2.5970     2.7160 hc         1 BWM       0.056867
     27 H10         -0.4960    -0.8890     2.7810 hc         1 BWM       0.056867
     28 H11          3.4680    -0.8440    -1.2120 hc         1 BWM       0.062700
     29 H12          3.5160     0.8940    -1.5280 hc         1 BWM       0.062700
     30 H13          4.5930     0.1720    -0.3250 hc         1 BWM       0.062700
     31 H14          1.7890     1.8950    -0.6320 hn         1 BWM       0.310500
     32 H15          0.6680     0.8900     1.9110 h1         1 BWM       0.066700
     33 H16          0.7160     2.5830     1.4770 h1         1 BWM       0.066700
     34 C2           0.5960     1.5770     1.0690 c3         1 BWM       0.144300
@<TRIPOS>BOND
     1     1     2 ar  
     2     1    17 ar  
     3     1    18 1   
     4     2     3 ar  
     5     2    19 1   
     6     3     5 ar  
     7     3    20 1   
     8     4     6 1   
     9     4     8 1   
    10     4    10 1   
    11     5     6 ar  
    12     5    21 1   
    13     6    17 ar  
    14     7     8 2   
    15     7    12 1   
    16     8     9 1   
    17     9    22 1   
    18     9    23 1   
    19     9    24 1   
    20    10    11 1   
    21    10    12 2   
    22    11    25 1   
    23    11    26 1   
    24    11    27 1   
    25    13    14 2   
    26    14    15 1   
    27    14    16 1   
    28    15    28 1   
    29    15    29 1   
    30    15    30 1   
    31    16    31 1   
    32    16    34 1   
    33    17    34 1   
    34    32    34 1   
    35    33    34 1   
@<TRIPOS>SUBSTRUCTURE
     1 BWM         1 TEMP              0 ****  ****    0 ROOT
