@<TRIPOS>MOLECULE
BWM
   34    35     1     0     0
SMALL
No Charge or Current Charge


@<TRIPOS>ATOM
      1 C4          -1.3620     2.5530     0.2890 ca         1 BWM      -0.103000
      2 C5          -2.6190     2.4890    -0.3360 ca         1 BWM      -0.100000
      3 C6          -3.1110     1.2590    -0.7990 ca         1 BWM      -0.101000
      4 N1          -0.3190    -1.0150     0.1390 na         1 BWM      -0.290800
      5 C7          -2.3450     0.0930    -0.6390 ca         1 BWM      -0.103000
      6 C8          -1.0800     0.1480    -0.0130 ca         1 BWM       0.007800
      7 N2          -0.0800    -2.9640    -0.8570 nc         1 BWM      -0.354500
      8 C9           0.0420    -1.6520    -1.0200 cd         1 BWM       0.401800
      9 C10          0.5280    -1.0090    -2.2910 c3         1 BWM      -0.120400
     10 C11         -0.8590    -1.9860     0.9410 cd         1 BWM       0.401800
     11 C12         -1.5600    -1.7720     2.2540 c3         1 BWM      -0.120400
     12 N3          -0.6540    -3.1770     0.3910 nc         1 BWM      -0.354500
     13 O            3.0380    -0.2810     0.9080 o          1 BWM      -0.588100
     14 C1           2.9020     0.6260     0.1020 c          1 BWM       0.604100
     15 C            3.8740     0.8510    -1.0470 c3         1 BWM      -0.180100
     16 N            1.8610     1.5240     0.1570 ns         1 BWM      -0.515900
     17 C3          -0.5860     1.3880     0.4570 ca         1 BWM      -0.094300
     18 H1          -0.9910     3.5120     0.6420 ha         1 BWM       0.119000
     19 H2          -3.2110     3.3930    -0.4600 ha         1 BWM       0.121000
     20 H3          -4.0840     1.2090    -1.2820 ha         1 BWM       0.123000
     21 H4          -2.7370    -0.8540    -1.0030 ha         1 BWM       0.131000
     22 H5           0.7020     0.0640    -2.1580 hc         1 BWM       0.056867
     23 H6           1.4700    -1.4620    -2.6210 hc         1 BWM       0.056867
     24 H7          -0.2080    -1.1320    -3.0930 hc         1 BWM       0.056867
     25 H8          -2.6210    -1.5460     2.0950 hc         1 BWM       0.056867
     26 H9          -1.4950    -2.6640     2.8880 hc         1 BWM       0.056867
     27 H10         -1.1140    -0.9350     2.8040 hc         1 BWM       0.056867
     28 H11          3.3160     0.8600    -1.9900 hc         1 BWM       0.062700
     29 H12          4.2580     1.8760    -0.9940 hc         1 BWM       0.062700
     30 H13          4.6850     0.1150    -1.0640 hc         1 BWM       0.062700
     31 H14          1.8380     2.2400    -0.5590 hn         1 BWM       0.310500
     32 H15          0.9090     0.6520     1.8320 h1         1 BWM       0.066700
     33 H16          0.8210     2.4140     1.7370 h1         1 BWM       0.066700
     34 C2           0.7750     1.4930     1.1400 c3         1 BWM       0.144300
@<TRIPOS>BOND
     1     1     2 ar  
     2     1    17 ar  
     3     1    18 1   
     4     2     3 ar  
     5     2    19 1   
     6     3     5 ar  
     7     3    20 1   
     8     4     6 1   
     9     4     8 1   
    10     4    10 1   
    11     5     6 ar  
    12     5    21 1   
    13     6    17 ar  
    14     7     8 2   
    15     7    12 1   
    16     8     9 1   
    17     9    22 1   
    18     9    23 1   
    19     9    24 1   
    20    10    11 1   
    21    10    12 2   
    22    11    25 1   
    23    11    26 1   
    24    11    27 1   
    25    13    14 2   
    26    14    15 1   
    27    14    16 1   
    28    15    28 1   
    29    15    29 1   
    30    15    30 1   
    31    16    31 1   
    32    16    34 1   
    33    17    34 1   
    34    32    34 1   
    35    33    34 1   
@<TRIPOS>SUBSTRUCTURE
     1 BWM         1 TEMP              0 ****  ****    0 ROOT
