@<TRIPOS>MOLECULE
BWP
   53    55     1     0     0
SMALL
bcc


@<TRIPOS>ATOM
      1 C22          0.3820     0.2990     5.8140 c3         1 BWP       0.136400
      2 N1          -1.5220    -0.4010    -1.5750 nb         1 BWP      -0.789000
      3 C2          -2.1850    -0.4730    -2.7240 ca         1 BWP       0.534200
      4 C6          -0.2060    -0.2630    -1.6810 ca         1 BWP       0.963900
      5 C4          -0.1660    -0.2690    -3.9690 ca         1 BWP       0.788200
      6 C3          -1.5780    -0.4130    -3.9550 ca         1 BWP      -0.396500
      7 N5           0.4840    -0.1980    -2.8220 nb         1 BWP      -0.856000
      8 C11          4.5840     0.2170    -6.0830 ca         1 BWP      -0.150000
      9 C10          3.6630    -0.2740    -7.0000 ca         1 BWP      -0.104500
     10 C9           2.3320    -0.4150    -6.6490 ca         1 BWP      -0.160000
     11 C8           1.8880    -0.0630    -5.3700 ca         1 BWP       0.165600
     12 C12          4.1440     0.5710    -4.8160 ca         1 BWP      -0.104500
     13 C17         -1.2320    -0.5670     2.6720 ca         1 BWP      -0.166000
     14 C16         -1.0070    -0.5910     1.3070 ca         1 BWP      -0.125000
     15 C13          2.8100     0.4400    -4.4510 ca         1 BWP      -0.160000
     16 C15          0.2170    -0.1630     0.7870 ca         1 BWP       0.132600
     17 C18         -0.2550    -0.1250     3.5620 ca         1 BWP       0.126100
     18 C19          0.9690     0.2970     3.0510 ca         1 BWP      -0.166000
     19 C20          1.1900     0.2780     1.6820 ca         1 BWP      -0.125000
     20 O21         -0.5760    -0.1420     4.8730 os         1 BWP      -0.305900
     21 N7           0.5170    -0.2080    -5.1330 nu         1 BWP      -0.735300
     22 BR          -2.6100    -0.5140    -5.5230 br         1 BWP      -0.080100
     23 C23         -0.2150     0.1550     7.1950 c3         1 BWP       0.149100
     24 C24          0.7180     0.7830     8.2350 c3         1 BWP       0.121800
     25 N25          0.3260     0.3560     9.5660 n3         1 BWP      -0.739600
     26 C26          1.4160     0.4230    10.5180 c3         1 BWP       0.151600
     27 C27         -0.8440     1.0570    10.0590 c3         1 BWP       0.151600
     28 O28         -0.4060    -1.2050     7.4930 oh         1 BWP      -0.589800
     29 H221         1.3010    -0.2970     5.7440 h1         1 BWP       0.037200
     30 H222         0.6460     1.3490     5.6360 h1         1 BWP       0.037200
     31 H2          -3.2620    -0.5810    -2.6510 h4         1 BWP       0.034100
     32 H10          3.9800    -0.5550    -7.9960 ha         1 BWP       0.131000
     33 H9           1.6250    -0.8000    -7.3750 ha         1 BWP       0.144000
     34 H12          4.8460     0.9610    -4.0900 ha         1 BWP       0.131000
     35 H17         -2.1860    -0.9040     3.0570 ha         1 BWP       0.141000
     36 H16         -1.7900    -0.9390     0.6520 ha         1 BWP       0.147000
     37 H13          2.5000     0.7280    -3.4610 ha         1 BWP       0.144000
     38 H19          1.7640     0.6500     3.6930 ha         1 BWP       0.141000
     39 H20          2.1490     0.6180     1.3080 ha         1 BWP       0.147000
     40 H7          -0.0230    -0.3700    -5.9700 hn         1 BWP       0.455800
     41 H23         -1.1750     0.6950     7.2050 h1         1 BWP       0.046700
     42 H241         0.7300     1.8770     8.1210 h1         1 BWP       0.043200
     43 H242         1.7380     0.4310     8.0560 h1         1 BWP       0.043200
     44 H261         1.0980    -0.0020    11.4710 h1         1 BWP       0.035700
     45 H262         2.2660    -0.1580    10.1590 h1         1 BWP       0.035700
     46 H263         1.7620     1.4490    10.7080 h1         1 BWP       0.035700
     47 H271        -1.6790     0.9560     9.3660 h1         1 BWP       0.035700
     48 H272        -1.1550     0.6270    11.0110 h1         1 BWP       0.035700
     49 H273        -0.6620     2.1310    10.2130 h1         1 BWP       0.035700
     50 H28         -0.2950    -1.2590     8.4570 ho         1 BWP       0.430000
     51 N14          0.5610    -0.1720    -0.5670 nu         1 BWP      -0.726300
     52 H11          5.6260     0.3240    -6.3530 ha         1 BWP       0.134000
     53 H14          1.5380    -0.0190    -0.7640 hn         1 BWP       0.452800
@<TRIPOS>BOND
     1     1    20 1   
     2     1    23 1   
     3     1    29 1   
     4     1    30 1   
     5     2     3 ar  
     6     2     4 ar  
     7     3     6 ar  
     8     3    31 1   
     9     4     7 ar  
    10     4    51 1   
    11     5     6 ar  
    12     5     7 ar  
    13     5    21 1   
    14     6    22 1   
    15     8     9 ar  
    16     8    12 ar  
    17     8    52 1   
    18     9    10 ar  
    19     9    32 1   
    20    10    11 ar  
    21    10    33 1   
    22    11    15 ar  
    23    11    21 1   
    24    12    15 ar  
    25    12    34 1   
    26    13    14 ar  
    27    13    17 ar  
    28    13    35 1   
    29    14    16 ar  
    30    14    36 1   
    31    15    37 1   
    32    16    19 ar  
    33    16    51 1   
    34    17    18 ar  
    35    17    20 1   
    36    18    19 ar  
    37    18    38 1   
    38    19    39 1   
    39    21    40 1   
    40    23    24 1   
    41    23    28 1   
    42    23    41 1   
    43    24    25 1   
    44    24    42 1   
    45    24    43 1   
    46    25    26 1   
    47    25    27 1   
    48    26    44 1   
    49    26    45 1   
    50    26    46 1   
    51    27    47 1   
    52    27    48 1   
    53    27    49 1   
    54    28    50 1   
    55    51    53 1   
@<TRIPOS>SUBSTRUCTURE
     1 BWP         1 TEMP              0 ****  ****    0 ROOT
