@<TRIPOS>MOLECULE
BWP
   53    55     1     0     0
SMALL
No Charge or Current Charge


@<TRIPOS>ATOM
      1 C22          0.4380     0.3430     5.9170 c3         1 BWP       0.159600
      2 N1          -1.5210     0.0190    -1.6440 nb         1 BWP      -0.263000
      3 C2          -2.2140     0.0150    -2.7970 ca         1 BWP       0.205900
      4 C6          -0.1830    -0.0660    -1.7500 ca         1 BWP       0.437900
      5 C4          -0.1620    -0.1190    -4.0270 ca         1 BWP       0.459900
      6 C3          -1.5640    -0.0610    -4.0390 ca         1 BWP      -0.265900
      7 N5           0.5310    -0.1290    -2.8800 nb         1 BWP      -0.330000
      8 C11          4.5850    -0.0760    -6.4130 ca         1 BWP      -0.132000
      9 C10          3.6340    -0.7640    -7.1840 ca         1 BWP      -0.086500
     10 C9           2.2900    -0.8010    -6.7710 ca         1 BWP      -0.142000
     11 C8           1.8870    -0.1640    -5.5840 ca         1 BWP       0.304000
     12 C12          4.1910     0.5780    -5.2350 ca         1 BWP      -0.086500
     13 C17         -1.0900    -0.7250     2.6840 ca         1 BWP      -0.148000
     14 C16         -0.8580    -0.6950     1.2960 ca         1 BWP      -0.107000
     15 C13          2.8460     0.5370    -4.8250 ca         1 BWP      -0.142000
     16 C15          0.3020    -0.0830     0.7780 ca         1 BWP       0.271000
     17 C18         -0.1660    -0.1540     3.5730 ca         1 BWP       0.126100
     18 C19          1.0050     0.4470     3.0630 ca         1 BWP      -0.148000
     19 C20          1.2330     0.4750     1.6740 ca         1 BWP      -0.107000
     20 O21         -0.4470    -0.2130     4.9220 os         1 BWP      -0.329100
     21 N7           0.5370    -0.2180    -5.2230 nu         1 BWP      -0.928900
     22 Br          -2.5840    -0.0730    -5.6670 br         1 BWP      -0.080100
     23 C23         -0.1780     0.1140     7.3230 c3         1 BWP       0.172300
     24 C24          0.6270     0.8120     8.4500 c3         1 BWP       0.121800
     25 N25          0.3390     0.2630     9.8110 n3         1 BWP      -0.739600
     26 C26          1.3470     0.6920    10.8080 c3         1 BWP       0.151600
     27 C27         -1.0430     0.5430    10.2780 c3         1 BWP       0.151600
     28 O28         -0.2210    -1.2780     7.6700 oh         1 BWP      -0.652000
     29 H221         1.4270    -0.1310     5.8680 h1         1 BWP       0.037200
     30 H222         0.5620     1.4210     5.7540 h1         1 BWP       0.037200
     31 H2          -3.2990     0.0730    -2.7220 h4         1 BWP       0.034100
     32 H10          3.9360    -1.2660    -8.1010 ha         1 BWP       0.113000
     33 H9           1.5620    -1.3370    -7.3740 ha         1 BWP       0.126000
     34 H12          4.9240     1.1220    -4.6430 ha         1 BWP       0.113000
     35 H17         -1.9870    -1.2000     3.0720 ha         1 BWP       0.123000
     36 H16         -1.5760    -1.1670     0.6340 ha         1 BWP       0.129000
     37 H13          2.5560     1.0700    -3.9260 ha         1 BWP       0.126000
     38 H19          1.7440     0.8950     3.7210 ha         1 BWP       0.123000
     39 H20          2.1380     0.9410     1.2930 ha         1 BWP       0.129000
     40 H7          -0.0850    -0.4390    -6.0000 hn         1 BWP       0.511000
     41 H23         -1.1950     0.5280     7.3270 h1         1 BWP       0.046700
     42 H241         0.4290     1.8920     8.4170 h1         1 BWP       0.043200
     43 H242         1.6950     0.6790     8.2260 h1         1 BWP       0.043200
     44 H261         1.1560     0.2200    11.7810 h1         1 BWP       0.035700
     45 H262         2.3570     0.4050    10.4890 h1         1 BWP       0.035700
     46 H263         1.3250     1.7820    10.9440 h1         1 BWP       0.035700
     47 H271        -1.7910     0.1340     9.5860 h1         1 BWP       0.035700
     48 H272        -1.2190     0.0870    11.2620 h1         1 BWP       0.035700
     49 H273        -1.2150     1.6240    10.3680 h1         1 BWP       0.035700
     50 H28         -0.0390    -1.2430     8.6430 ho         1 BWP       0.469000
     51 N14          0.5830    -0.0400    -0.5950 nu         1 BWP      -0.919900
     52 H11          5.6250    -0.0450    -6.7320 ha         1 BWP       0.116000
     53 H14          1.5680     0.1100    -0.8080 hn         1 BWP       0.508000
@<TRIPOS>BOND
     1     1    20 1   
     2     1    23 1   
     3     1    29 1   
     4     1    30 1   
     5     2     3 ar  
     6     2     4 ar  
     7     3     6 ar  
     8     3    31 1   
     9     4     7 ar  
    10     4    51 1   
    11     5     6 ar  
    12     5     7 ar  
    13     5    21 1   
    14     6    22 1   
    15     8     9 ar  
    16     8    12 ar  
    17     8    52 1   
    18     9    10 ar  
    19     9    32 1   
    20    10    11 ar  
    21    10    33 1   
    22    11    15 ar  
    23    11    21 1   
    24    12    15 ar  
    25    12    34 1   
    26    13    14 ar  
    27    13    17 ar  
    28    13    35 1   
    29    14    16 ar  
    30    14    36 1   
    31    15    37 1   
    32    16    19 ar  
    33    16    51 1   
    34    17    18 ar  
    35    17    20 1   
    36    18    19 ar  
    37    18    38 1   
    38    19    39 1   
    39    21    40 1   
    40    23    24 1   
    41    23    28 1   
    42    23    41 1   
    43    24    25 1   
    44    24    42 1   
    45    24    43 1   
    46    25    26 1   
    47    25    27 1   
    48    26    44 1   
    49    26    45 1   
    50    26    46 1   
    51    27    47 1   
    52    27    48 1   
    53    27    49 1   
    54    28    50 1   
    55    51    53 1   
@<TRIPOS>SUBSTRUCTURE
     1 BWP         1 TEMP              0 ****  ****    0 ROOT
