@<TRIPOS>MOLECULE
BWQ
   79    83     1     0     0
SMALL
No Charge or Current Charge


@<TRIPOS>ATOM
      1 C01         -0.0430     2.3180     2.8050 c3         1 BWQ      -0.088100
      2 C02          0.0710     1.4220     1.5500 c3         1 BWQ      -0.057700
      3 C03          1.2810     1.8660     0.6940 c3         1 BWQ      -0.088100
      4 C04          0.1140    -0.0860     1.9520 c3         1 BWQ      -0.075400
      5 C05         -0.1560    -1.1640     0.8450 c6         1 BWQ       0.179900
      6 C06         -1.5420    -0.9060     0.2850 cc         1 BWQ      -0.095300
      7 C08         -3.7930    -0.6140     0.0450 ca         1 BWQ      -0.003200
      8 C09         -5.1750    -0.5530     0.2580 ca         1 BWQ      -0.231000
      9 C10         -5.9990    -0.1130    -0.8200 ca         1 BWQ       0.173100
     10 C12         -7.9700    -0.2340     0.5400 c5         1 BWQ       0.167300
     11 C13         -9.5200    -0.2470     0.3380 c5         1 BWQ      -0.095400
     12 C14        -10.0440     0.6070     1.5190 c5         1 BWQ      -0.078900
     13 C15         -9.0420     1.7810     1.4700 c5         1 BWQ      -0.078900
     14 C16         -7.6960     1.0100     1.4610 c5         1 BWQ      -0.095400
     15 C17         -5.3970     0.2350    -2.0540 ca         1 BWQ      -0.168000
     16 C18         -4.0000     0.1620    -2.2370 ca         1 BWQ      -0.025000
     17 C19         -3.2330    -0.2690    -1.1520 ca         1 BWQ      -0.121800
     18 C20         -1.8120    -0.4550    -0.9920 cd         1 BWQ      -0.118400
     19 C21         -0.6830    -0.3000    -1.9720 c6         1 BWQ       0.002800
     20 C22          0.3820    -1.3810    -1.6490 c6         1 BWQ       0.034700
     21 C23          1.4720    -1.4390    -2.7510 c          1 BWQ       0.564000
     22 C26          3.3020    -1.3710    -1.0260 c6         1 BWQ       0.045700
     23 C27          4.2500    -0.2050    -0.6190 c3         1 BWQ      -0.081400
     24 C28          5.4980    -0.0360    -1.5220 c3         1 BWQ      -0.143400
     25 C29          6.4070     1.0790    -1.0010 c          1 BWQ       0.605100
     26 C32          8.2950     1.4250     0.5710 c3         1 BWQ       0.207000
     27 C33          9.1210     0.4390     1.4260 c3         1 BWQ      -0.107433
     28 C34          7.5450     2.4220     1.4910 c3         1 BWQ      -0.107433
     29 C35          9.2130     2.1240    -0.4650 c3         1 BWQ      -0.107433
     30 C36          2.2180    -1.5780     0.0770 c          1 BWQ       0.552000
     31 N07         -2.7950    -0.9980     0.9250 na         1 BWQ      -0.217700
     32 N25          2.7600    -1.1420    -2.3850 ns         1 BWQ      -0.501900
     33 N38          0.8920    -1.2130    -0.2340 n          1 BWQ      -0.383800
     34 O11         -7.3870    -0.0000    -0.7720 os         1 BWQ      -0.344100
     35 O24          1.2470    -1.8600    -3.8750 o          1 BWQ      -0.558000
     36 O30          6.2460     2.2560    -1.2890 o          1 BWQ      -0.491000
     37 O31          7.3370     0.5840    -0.1150 os         1 BWQ      -0.468100
     38 O37          2.5270    -2.0010     1.1840 o          1 BWQ      -0.553000
     39 H1          -0.1160     3.3760     2.5230 hc         1 BWQ       0.033033
     40 H2          -0.9390     2.0650     3.3840 hc         1 BWQ       0.033033
     41 H3           0.8330     2.1950     3.4540 hc         1 BWQ       0.033033
     42 H4          -0.8340     1.5970     0.9560 hc         1 BWQ       0.057700
     43 H5           1.2390     2.9440     0.4960 hc         1 BWQ       0.033033
     44 H6           2.2240     1.6530     1.2130 hc         1 BWQ       0.033033
     45 H7           1.2970     1.3610    -0.2760 hc         1 BWQ       0.033033
     46 H8           1.0730    -0.2840     2.4430 hc         1 BWQ       0.052700
     47 H9          -0.6340    -0.2400     2.7400 hc         1 BWQ       0.052700
     48 H10         -0.1610    -2.1450     1.3430 h1         1 BWQ       0.064700
     49 H11         -5.5630    -0.8380     1.2300 ha         1 BWQ       0.120000
     50 H12         -7.6250    -1.1850     0.9650 h1         1 BWQ       0.045700
     51 H13         -9.8110     0.1950    -0.6220 hc         1 BWQ       0.056700
     52 H14         -9.9250    -1.2650     0.3570 hc         1 BWQ       0.056700
     53 H15        -11.0800     0.9320     1.3730 hc         1 BWQ       0.044450
     54 H16         -9.9970     0.0650     2.4720 hc         1 BWQ       0.044450
     55 H17         -9.1690     2.3890     0.5660 hc         1 BWQ       0.044450
     56 H18         -9.1350     2.4500     2.3330 hc         1 BWQ       0.044450
     57 H19         -7.4310     0.6820     2.4720 hc         1 BWQ       0.056700
     58 H20         -6.8720     1.6410     1.1090 hc         1 BWQ       0.056700
     59 H21         -6.0250     0.5660    -2.8770 ha         1 BWQ       0.127000
     60 H22         -3.5390     0.4320    -3.1840 ha         1 BWQ       0.120000
     61 H23         -1.0500    -0.4290    -2.9990 hc         1 BWQ       0.074700
     62 H24         -0.2470     0.7060    -1.9150 hc         1 BWQ       0.074700
     63 H25         -0.1080    -2.3630    -1.7040 h1         1 BWQ       0.071700
     64 H26          3.8840    -2.3030    -1.0480 h1         1 BWQ       0.074700
     65 H27          3.6910     0.7390    -0.6140 hc         1 BWQ       0.079200
     66 H28          4.5930    -0.3600     0.4130 hc         1 BWQ       0.079200
     67 H29          6.0490    -0.9840    -1.5020 hc         1 BWQ       0.069200
     68 H30          5.1830     0.2090    -2.5430 hc         1 BWQ       0.069200
     69 H31          8.4770    -0.0970     2.1340 hc         1 BWQ       0.049367
     70 H32          9.6220    -0.3020     0.7920 hc         1 BWQ       0.049367
     71 H33          9.8890     0.9690     2.0010 hc         1 BWQ       0.049367
     72 H34          8.2450     2.9010     2.1860 hc         1 BWQ       0.049367
     73 H35          7.0590     3.2220     0.9210 hc         1 BWQ       0.049367
     74 H36          6.7800     1.9060     2.0840 hc         1 BWQ       0.049367
     75 H37         10.0750     2.5790     0.0360 hc         1 BWQ       0.049367
     76 H38          9.5910     1.4030    -1.1990 hc         1 BWQ       0.049367
     77 H39          8.6920     2.9240    -1.0010 hc         1 BWQ       0.049367
     78 H40         -2.9470    -1.2920     1.8830 hn         1 BWQ       0.351000
     79 H41          3.4240    -1.1490    -3.1510 hn         1 BWQ       0.323500
@<TRIPOS>BOND
     1     1     2 1   
     2     1    39 1   
     3     1    40 1   
     4     1    41 1   
     5     2     3 1   
     6     2     4 1   
     7     2    42 1   
     8     3    43 1   
     9     3    44 1   
    10     3    45 1   
    11     4     5 1   
    12     4    46 1   
    13     4    47 1   
    14     5     6 1   
    15     5    33 1   
    16     5    48 1   
    17     6    18 2   
    18     6    31 1   
    19     7     8 ar  
    20     7    17 ar  
    21     7    31 1   
    22     8     9 ar  
    23     8    49 1   
    24     9    15 ar  
    25     9    34 1   
    26    10    11 1   
    27    10    14 1   
    28    10    34 1   
    29    10    50 1   
    30    11    12 1   
    31    11    51 1   
    32    11    52 1   
    33    12    13 1   
    34    12    53 1   
    35    12    54 1   
    36    13    14 1   
    37    13    55 1   
    38    13    56 1   
    39    14    57 1   
    40    14    58 1   
    41    15    16 ar  
    42    15    59 1   
    43    16    17 ar  
    44    16    60 1   
    45    17    18 1   
    46    18    19 1   
    47    19    20 1   
    48    19    61 1   
    49    19    62 1   
    50    20    21 1   
    51    20    33 1   
    52    20    63 1   
    53    21    32 1   
    54    21    35 2   
    55    22    23 1   
    56    22    30 1   
    57    22    32 1   
    58    22    64 1   
    59    23    24 1   
    60    23    65 1   
    61    23    66 1   
    62    24    25 1   
    63    24    67 1   
    64    24    68 1   
    65    25    36 2   
    66    25    37 1   
    67    26    27 1   
    68    26    28 1   
    69    26    29 1   
    70    26    37 1   
    71    27    69 1   
    72    27    70 1   
    73    27    71 1   
    74    28    72 1   
    75    28    73 1   
    76    28    74 1   
    77    29    75 1   
    78    29    76 1   
    79    29    77 1   
    80    30    33 1   
    81    30    38 2   
    82    31    78 1   
    83    32    79 1   
@<TRIPOS>SUBSTRUCTURE
     1 BWQ         1 TEMP              0 ****  ****    0 ROOT
