@<TRIPOS>MOLECULE
BWQ
   79    83     1     0     0
SMALL
abcg2


@<TRIPOS>ATOM
      1 C01         -0.4530     2.7610     2.5510 c3         1 BWQ      -0.088100
      2 C02         -0.2570     1.7040     1.4650 c3         1 BWQ      -0.057700
      3 C03          1.0030     2.0230     0.6650 c3         1 BWQ      -0.088100
      4 C04         -0.2260     0.3220     2.1220 c3         1 BWQ      -0.075400
      5 C05         -0.3890    -0.9180     1.2140 c6         1 BWQ       0.179900
      6 C06         -1.6290    -0.7660     0.4070 cc         1 BWQ      -0.095300
      7 C08         -3.7860    -0.4130    -0.0250 ca         1 BWQ      -0.003200
      8 C09         -5.1690    -0.2530     0.0640 ca         1 BWQ      -0.231000
      9 C10         -5.8490     0.0520    -1.1050 ca         1 BWQ       0.173100
     10 C12         -7.9900     0.1130    -0.0260 c5         1 BWQ       0.167300
     11 C13         -9.4550     0.0240    -0.4280 c5         1 BWQ      -0.095400
     12 C14        -10.2100     0.3230     0.8740 c5         1 BWQ      -0.078900
     13 C15         -9.2250     1.1280     1.7590 c5         1 BWQ      -0.078900
     14 C16         -7.9630     1.3200     0.9100 c5         1 BWQ      -0.095400
     15 C17         -5.1570     0.1810    -2.3290 ca         1 BWQ      -0.168000
     16 C18         -3.7910     0.0100    -2.3990 ca         1 BWQ      -0.025000
     17 C19         -3.0750    -0.2920    -1.2370 ca         1 BWQ      -0.121800
     18 C20         -1.6980    -0.5230    -0.9260 cd         1 BWQ      -0.118400
     19 C21         -0.4760    -0.5650    -1.7650 c6         1 BWQ       0.002800
     20 C22          0.5190    -1.5090    -1.0890 c6         1 BWQ       0.034700
     21 C23          1.7740    -1.6150    -1.9350 c          1 BWQ       0.564000
     22 C26          3.1780    -1.6450     0.1150 c6         1 BWQ       0.045700
     23 C27          4.1100    -0.4920     0.5170 c3         1 BWQ      -0.081400
     24 C28          5.4910    -0.6110    -0.1070 c3         1 BWQ      -0.143400
     25 C29          6.4050     0.5210     0.3040 c          1 BWQ       0.605100
     26 C32          8.6320     1.4210    -0.1930 c3         1 BWQ       0.207000
     27 C33          9.7120     0.8860    -1.1240 c3         1 BWQ      -0.107433
     28 C34          9.1510     1.4680     1.2390 c3         1 BWQ      -0.107433
     29 C35          8.1660     2.7900    -0.6720 c3         1 BWQ      -0.107433
     30 C36          1.9080    -1.5250     0.9330 c          1 BWQ       0.552000
     31 N07         -2.8830    -0.6980     0.9580 na         1 BWQ      -0.217700
     32 N25          2.9500    -1.6550    -1.3070 ns         1 BWQ      -0.501900
     33 N38          0.7630    -1.1560     0.3170 n          1 BWQ      -0.383800
     34 O11         -7.1860     0.2390    -1.1850 os         1 BWQ      -0.344100
     35 O24          1.6770    -1.6940    -3.1510 o          1 BWQ      -0.558000
     36 O30          6.1030     1.3750     1.1000 o          1 BWQ      -0.491000
     37 O31          7.5620     0.4380    -0.3310 os         1 BWQ      -0.468100
     38 O37          1.9940    -1.6860     2.1400 o          1 BWQ      -0.553000
     39 H1          -0.4920     3.7630     2.1220 hc         1 BWQ       0.033033
     40 H2          -1.3780     2.6000     3.1070 hc         1 BWQ       0.033033
     41 H3           0.3730     2.7400     3.2670 hc         1 BWQ       0.033033
     42 H4          -1.1160     1.7590     0.7880 hc         1 BWQ       0.057700
     43 H5           0.9510     3.0310     0.2500 hc         1 BWQ       0.033033
     44 H6           1.8900     1.9790     1.3030 hc         1 BWQ       0.033033
     45 H7           1.1570     1.3360    -0.1640 hc         1 BWQ       0.033033
     46 H8           0.6770     0.2270     2.7250 hc         1 BWQ       0.052700
     47 H9          -1.0540     0.2630     2.8360 hc         1 BWQ       0.052700
     48 H10         -0.4910    -1.7850     1.8780 h1         1 BWQ       0.064700
     49 H11         -5.6670    -0.3580     1.0180 ha         1 BWQ       0.120000
     50 H12         -7.7100    -0.7950     0.5240 h1         1 BWQ       0.045700
     51 H13         -9.6610     0.7940    -1.1770 hc         1 BWQ       0.056700
     52 H14         -9.7180    -0.9410    -0.8640 hc         1 BWQ       0.056700
     53 H15        -11.1310     0.8710     0.6800 hc         1 BWQ       0.044450
     54 H16        -10.4970    -0.6040     1.3720 hc         1 BWQ       0.044450
     55 H17         -9.6410     2.0820     2.0800 hc         1 BWQ       0.044450
     56 H18         -8.9860     0.5680     2.6640 hc         1 BWQ       0.044450
     57 H19         -7.0580     1.3950     1.5120 hc         1 BWQ       0.056700
     58 H20         -8.0340     2.2300     0.3070 hc         1 BWQ       0.056700
     59 H21         -5.7220     0.4200    -3.2210 ha         1 BWQ       0.127000
     60 H22         -3.2850     0.1150    -3.3520 ha         1 BWQ       0.120000
     61 H23         -0.6960    -0.9590    -2.7570 hc         1 BWQ       0.074700
     62 H24         -0.0320     0.4250    -1.9100 hc         1 BWQ       0.074700
     63 H25          0.0710    -2.5120    -1.1110 h1         1 BWQ       0.071700
     64 H26          3.6410    -2.5930     0.4060 h1         1 BWQ       0.074700
     65 H27          3.6440     0.4530     0.2260 hc         1 BWQ       0.079200
     66 H28          4.2040    -0.4910     1.6020 hc         1 BWQ       0.079200
     67 H29          5.9620    -1.5550     0.1840 hc         1 BWQ       0.069200
     68 H30          5.4500    -0.6190    -1.1990 hc         1 BWQ       0.069200
     69 H31         10.0710    -0.0920    -0.8010 hc         1 BWQ       0.049367
     70 H32          9.3430     0.7990    -2.1470 hc         1 BWQ       0.049367
     71 H33         10.5620     1.5690    -1.1350 hc         1 BWQ       0.049367
     72 H34         10.0490     2.0870     1.2680 hc         1 BWQ       0.049367
     73 H35          8.4300     1.9010     1.9280 hc         1 BWQ       0.049367
     74 H36          9.4240     0.4730     1.5930 hc         1 BWQ       0.049367
     75 H37          9.0200     3.4670    -0.6930 hc         1 BWQ       0.049367
     76 H38          7.7630     2.7340    -1.6850 hc         1 BWQ       0.049367
     77 H39          7.4140     3.2280    -0.0200 hc         1 BWQ       0.049367
     78 H40         -3.1100    -0.8630     1.9250 hn         1 BWQ       0.351000
     79 H41          3.7560    -1.7940    -1.9000 hn         1 BWQ       0.323500
@<TRIPOS>BOND
     1     1     2 1   
     2     1    39 1   
     3     1    40 1   
     4     1    41 1   
     5     2     3 1   
     6     2     4 1   
     7     2    42 1   
     8     3    43 1   
     9     3    44 1   
    10     3    45 1   
    11     4     5 1   
    12     4    46 1   
    13     4    47 1   
    14     5     6 1   
    15     5    33 1   
    16     5    48 1   
    17     6    18 2   
    18     6    31 1   
    19     7     8 ar  
    20     7    17 ar  
    21     7    31 1   
    22     8     9 ar  
    23     8    49 1   
    24     9    15 ar  
    25     9    34 1   
    26    10    11 1   
    27    10    14 1   
    28    10    34 1   
    29    10    50 1   
    30    11    12 1   
    31    11    51 1   
    32    11    52 1   
    33    12    13 1   
    34    12    53 1   
    35    12    54 1   
    36    13    14 1   
    37    13    55 1   
    38    13    56 1   
    39    14    57 1   
    40    14    58 1   
    41    15    16 ar  
    42    15    59 1   
    43    16    17 ar  
    44    16    60 1   
    45    17    18 1   
    46    18    19 1   
    47    19    20 1   
    48    19    61 1   
    49    19    62 1   
    50    20    21 1   
    51    20    33 1   
    52    20    63 1   
    53    21    32 1   
    54    21    35 2   
    55    22    23 1   
    56    22    30 1   
    57    22    32 1   
    58    22    64 1   
    59    23    24 1   
    60    23    65 1   
    61    23    66 1   
    62    24    25 1   
    63    24    67 1   
    64    24    68 1   
    65    25    36 2   
    66    25    37 1   
    67    26    27 1   
    68    26    28 1   
    69    26    29 1   
    70    26    37 1   
    71    27    69 1   
    72    27    70 1   
    73    27    71 1   
    74    28    72 1   
    75    28    73 1   
    76    28    74 1   
    77    29    75 1   
    78    29    76 1   
    79    29    77 1   
    80    30    33 1   
    81    30    38 2   
    82    31    78 1   
    83    32    79 1   
@<TRIPOS>SUBSTRUCTURE
     1 BWQ         1 TEMP              0 ****  ****    0 ROOT
