@<TRIPOS>MOLECULE
BWR
   51    54     1     0     0
SMALL
bcc


@<TRIPOS>ATOM
      1 CAL          4.8360    -0.9000     0.6590 c6         1 BWR       0.171300
      2 CAJ          5.0260    -2.2510    -0.0110 c6         1 BWR      -0.075900
      3 CBA          6.4880    -2.4900    -0.3610 c6         1 BWR       0.162500
      4 NAA          6.6360    -3.7330    -1.1030 n8         1 BWR      -0.882800
      5 CAK          6.9970    -1.3170    -1.1890 c6         1 BWR      -0.075900
      6 CAM          6.7450     0.0020    -0.4740 c6         1 BWR       0.171300
      7 NBB          5.3350     0.1720    -0.1830 n3         1 BWR      -0.725600
      8 CAO          5.0410     1.4770     0.3630 c3         1 BWR       0.216100
      9 CAV          3.5710     1.8110     0.3070 ca         1 BWR      -0.077300
     10 CAG          2.8050     1.4660    -0.8040 ca         1 BWR      -0.121000
     11 CAE          1.4650     1.8120    -0.8750 ca         1 BWR      -0.116500
     12 CAF          2.9600     2.5070     1.3430 ca         1 BWR      -0.121000
     13 CAD          1.6170     2.8570     1.2710 ca         1 BWR      -0.116500
     14 CAU          0.8550     2.5160     0.1610 ca         1 BWR      -0.117300
     15 CAN         -0.6060     2.8620     0.0930 c3         1 BWR       0.154300
     16 NAQ         -1.4070     1.7100     0.4700 ns         1 BWR      -0.571900
     17 CAT         -2.7440     1.7160     0.4000 c          1 BWR       0.697700
     18 OAB         -3.3960     2.6640    -0.0070 o          1 BWR      -0.573100
     19 CAW         -3.4010     0.4780     0.9130 cc         1 BWR      -0.095600
     20 CAZ         -4.4000    -0.2770     0.2260 cc         1 BWR      -0.206600
     21 CAX         -4.8360    -0.1780    -1.1460 c          1 BWR       0.737100
     22 OAC         -4.4210     0.5810    -2.0000 o          1 BWR      -0.579500
     23 NAR         -5.8310    -1.1080    -1.4320 ns         1 BWR      -0.487400
     24 CAH         -6.2960    -2.0370    -0.5720 cc         1 BWR       0.505800
     25 NAP         -5.8790    -2.1760     0.6420 nd         1 BWR      -0.602100
     26 CAY         -4.9290    -1.2880     1.0080 cd         1 BWR       0.204300
     27 SAS         -4.2090    -1.3200     2.5720 ss         1 BWR      -0.004800
     28 CAI         -3.1990     0.0150     2.1750 cd         1 BWR      -0.121100
     29 H1           3.7740    -0.7380     0.8530 h1         1 BWR       0.030950
     30 H2           5.3390    -0.8990     1.6440 h1         1 BWR       0.030950
     31 H3           4.6570    -3.0380     0.6530 hc         1 BWR       0.054450
     32 H4           4.4260    -2.2890    -0.9250 hc         1 BWR       0.054450
     33 H5           7.0600    -2.4940     0.5830 h1         1 BWR       0.008700
     34 H6           7.6160    -3.8870    -1.3080 hn         1 BWR       0.336800
     35 H7           6.3620    -4.5100    -0.5120 hn         1 BWR       0.336800
     36 H9           8.0680    -1.4240    -1.3830 hc         1 BWR       0.054450
     37 H10          6.4890    -1.3120    -2.1580 hc         1 BWR       0.054450
     38 H11          7.3590     0.0400     0.4430 h1         1 BWR       0.030950
     39 H12          7.0750     0.8310    -1.1050 h1         1 BWR       0.030950
     40 H14          5.3990     1.5930     1.4000 h1         1 BWR       0.038700
     41 H15          5.5860     2.2200    -0.2290 h1         1 BWR       0.038700
     42 H16          3.2660     0.9120    -1.6120 ha         1 BWR       0.140500
     43 H17          0.8880     1.5350    -1.7500 ha         1 BWR       0.135500
     44 H18          3.5350     2.7810     2.2200 ha         1 BWR       0.140500
     45 H19          1.1590     3.3970     2.0920 ha         1 BWR       0.135500
     46 H20         -0.8270     3.7010     0.7570 h1         1 BWR       0.059200
     47 H21         -0.8730     3.1740    -0.9200 h1         1 BWR       0.059200
     48 H22         -0.9340     0.8790     0.7880 hn         1 BWR       0.321500
     49 H23         -7.0640    -2.6930    -0.9600 h5         1 BWR       0.050800
     50 H25         -2.5270     0.4140     2.9190 h4         1 BWR       0.176000
     51 H8          -6.2080    -1.1020    -2.3710 hn         1 BWR       0.332500
@<TRIPOS>BOND
     1     1     2 1   
     2     1     7 1   
     3     1    29 1   
     4     1    30 1   
     5     2     3 1   
     6     2    31 1   
     7     2    32 1   
     8     3     4 1   
     9     3     5 1   
    10     3    33 1   
    11     4    34 1   
    12     4    35 1   
    13     5     6 1   
    14     5    36 1   
    15     5    37 1   
    16     6     7 1   
    17     6    38 1   
    18     6    39 1   
    19     7     8 1   
    20     8     9 1   
    21     8    40 1   
    22     8    41 1   
    23     9    10 ar  
    24     9    12 ar  
    25    10    11 ar  
    26    10    42 1   
    27    11    14 ar  
    28    11    43 1   
    29    12    13 ar  
    30    12    44 1   
    31    13    14 ar  
    32    13    45 1   
    33    14    15 1   
    34    15    16 1   
    35    15    46 1   
    36    15    47 1   
    37    16    17 1   
    38    16    48 1   
    39    17    18 2   
    40    17    19 1   
    41    19    20 1   
    42    19    28 2   
    43    20    21 1   
    44    20    26 2   
    45    21    22 2   
    46    21    23 1   
    47    23    24 1   
    48    23    51 1   
    49    24    25 2   
    50    24    49 1   
    51    25    26 1   
    52    26    27 1   
    53    27    28 1   
    54    28    50 1   
@<TRIPOS>SUBSTRUCTURE
     1 BWR         1 TEMP              0 ****  ****    0 ROOT
