@<TRIPOS>MOLECULE
BWR
   51    54     1     0     0
SMALL
No Charge or Current Charge


@<TRIPOS>ATOM
      1 CAL          4.8720    -0.7560     0.7160 c6         1 BWR       0.171300
      2 CAJ          5.1810    -2.1980     0.2510 c6         1 BWR      -0.075900
      3 CBA          6.7060    -2.4240     0.1540 c6         1 BWR       0.162500
      4 NAA          7.0110    -3.7840    -0.3340 n8         1 BWR      -0.993200
      5 CAK          7.3430    -1.3520    -0.7580 c6         1 BWR      -0.075900
      6 CAM          6.9770     0.0680    -0.2630 c6         1 BWR       0.171300
      7 NBB          5.5030     0.2590    -0.1770 n3         1 BWR      -0.725600
      8 CAO          5.1430     1.6520     0.1860 c3         1 BWR       0.216100
      9 CAV          3.6460     1.9390     0.0990 ca         1 BWR      -0.077300
     10 CAG          2.9960     1.9370    -1.1500 ca         1 BWR      -0.103000
     11 CAE          1.6170     2.1990    -1.2350 ca         1 BWR      -0.098500
     12 CAF          2.8990     2.2060     1.2640 ca         1 BWR      -0.103000
     13 CAD          1.5200     2.4680     1.1790 ca         1 BWR      -0.098500
     14 CAU          0.8730     2.4680    -0.0710 ca         1 BWR      -0.117300
     15 CAN         -0.6200     2.7430    -0.1620 c3         1 BWR       0.154300
     16 NAQ         -1.3820     1.5030    -0.0550 ns         1 BWR      -0.504900
     17 CAT         -2.7570     1.4220    -0.0980 c          1 BWR       0.630700
     18 OAB         -3.4170     2.4390    -0.2330 o          1 BWR      -0.573100
     19 CAW         -3.2890     0.0120     0.0350 cc         1 BWR      -0.095600
     20 CAZ         -4.6800    -0.4220     0.0300 cc         1 BWR      -0.206600
     21 CAX         -5.9030     0.4110    -0.1060 c          1 BWR       0.594600
     22 OAC         -5.9750     1.6190    -0.2400 o          1 BWR      -0.504000
     23 NAR         -7.0360    -0.3250    -0.0680 ns         1 BWR      -0.420400
     24 CAH         -7.0850    -1.6790     0.0770 cc         1 BWR       0.505800
     25 NAP         -6.0150    -2.4600     0.2020 nd         1 BWR      -0.602100
     26 CAY         -4.7870    -1.7930     0.1750 cd         1 BWR       0.059400
     27 SAS         -3.2340    -2.6200     0.3230 ss         1 BWR       0.285000
     28 CAI         -2.4170    -1.0610     0.1850 cd         1 BWR      -0.248000
     29 H1           3.7800    -0.6280     0.7370 h1         1 BWR       0.030950
     30 H2           5.2310    -0.6270     1.7490 h1         1 BWR       0.030950
     31 H3           4.7330    -2.9130     0.9540 hc         1 BWR       0.054450
     32 H4           4.7090    -2.3740    -0.7250 hc         1 BWR       0.054450
     33 H5           7.1430    -2.3400     1.1610 h1         1 BWR       0.008700
     34 H6           8.0270    -3.9260    -0.2980 hn         1 BWR       0.392000
     35 H7           6.6520    -4.4650     0.3450 hn         1 BWR       0.392000
     36 H9           8.4350    -1.4640    -0.7730 hc         1 BWR       0.054450
     37 H10          6.9950    -1.4780    -1.7920 hc         1 BWR       0.054450
     38 H11          7.4390     0.2340     0.7220 h1         1 BWR       0.030950
     39 H12          7.4160     0.8030    -0.9540 h1         1 BWR       0.030950
     40 H14          5.4960     1.8770     1.2020 h1         1 BWR       0.038700
     41 H15          5.6560     2.3520    -0.4870 h1         1 BWR       0.038700
     42 H16          3.5620     1.7260    -2.0540 ha         1 BWR       0.122500
     43 H17          1.1280     2.1900    -2.2070 ha         1 BWR       0.117500
     44 H18          3.3860     2.2070     2.2360 ha         1 BWR       0.122500
     45 H19          0.9550     2.6690     2.0870 ha         1 BWR       0.117500
     46 H20         -0.9240     3.4220     0.6460 h1         1 BWR       0.059200
     47 H21         -0.8530     3.2270    -1.1190 h1         1 BWR       0.059200
     48 H22         -0.8740     0.6380     0.0580 hn         1 BWR       0.321500
     49 H23         -8.0980    -2.0650     0.0810 h5         1 BWR       0.050800
     50 H25         -1.3350    -1.0630     0.2250 h4         1 BWR       0.158000
     51 H8          -7.9010     0.1870    -0.1560 hn         1 BWR       0.332500
@<TRIPOS>BOND
     1     1     2 1   
     2     1     7 1   
     3     1    29 1   
     4     1    30 1   
     5     2     3 1   
     6     2    31 1   
     7     2    32 1   
     8     3     4 1   
     9     3     5 1   
    10     3    33 1   
    11     4    34 1   
    12     4    35 1   
    13     5     6 1   
    14     5    36 1   
    15     5    37 1   
    16     6     7 1   
    17     6    38 1   
    18     6    39 1   
    19     7     8 1   
    20     8     9 1   
    21     8    40 1   
    22     8    41 1   
    23     9    10 ar  
    24     9    12 ar  
    25    10    11 ar  
    26    10    42 1   
    27    11    14 ar  
    28    11    43 1   
    29    12    13 ar  
    30    12    44 1   
    31    13    14 ar  
    32    13    45 1   
    33    14    15 1   
    34    15    16 1   
    35    15    46 1   
    36    15    47 1   
    37    16    17 1   
    38    16    48 1   
    39    17    18 2   
    40    17    19 1   
    41    19    20 1   
    42    19    28 2   
    43    20    21 1   
    44    20    26 2   
    45    21    22 2   
    46    21    23 1   
    47    23    24 1   
    48    23    51 1   
    49    24    25 2   
    50    24    49 1   
    51    25    26 1   
    52    26    27 1   
    53    27    28 1   
    54    28    50 1   
@<TRIPOS>SUBSTRUCTURE
     1 BWR         1 TEMP              0 ****  ****    0 ROOT
