@<TRIPOS>MOLECULE
BWS
   34    33     1     0     0
SMALL
bcc


@<TRIPOS>ATOM
      1 N           -4.5090     2.0150     0.1910 n8         1 BWS      -0.889800
      2 CA          -4.7190     0.6210    -0.1700 c3         1 BWS       0.010500
      3 C           -5.9890    -0.0350     0.4270 c          1 BWS       0.903600
      4 O           -6.5360     0.5380     1.3900 o          1 BWS      -0.844800
      5 CB          -3.4980    -0.2130     0.2300 c3         1 BWS      -0.040400
      6 OXT         -6.3470    -1.1120    -0.0950 o          1 BWS      -0.844800
      7 CAG         -2.2210     0.2650    -0.4410 c3         1 BWS      -0.152400
      8 CAH         -0.9910    -0.5310    -0.0580 c          1 BWS       0.663100
      9 CAK          1.4380    -0.6880    -0.3730 c3         1 BWS       0.030700
     10 CAL          1.6440    -1.8130    -1.3920 c3         1 BWS      -0.105100
     11 CAO          2.5400     0.3550    -0.5380 c          1 BWS       0.645100
     12 CAR          4.8810     0.8560    -0.0110 c3         1 BWS      -0.055000
     13 CAS          6.0170     0.2270     0.8210 c          1 BWS       0.923600
     14 NAJ          0.1650    -0.0330    -0.5350 ns         1 BWS      -0.573900
     15 OAI         -1.0360    -1.5460     0.6230 o          1 BWS      -0.628100
     16 OAT          5.7480    -0.8110     1.4560 o          1 BWS      -0.838800
     17 OAU          7.1030     0.8290     0.7740 o          1 BWS      -0.838800
     18 H1          -5.2550     2.5720    -0.2090 hn         1 BWS       0.323800
     19 H2          -4.6460     2.0990     1.1930 hn         1 BWS       0.323800
     20 H4          -4.8070     0.5740    -1.2620 h1         1 BWS       0.031700
     21 H5          -3.3830    -0.1740     1.3190 hc         1 BWS       0.053200
     22 H6          -3.6850    -1.2570    -0.0260 hc         1 BWS       0.053200
     23 H8          -2.3310     0.2080    -1.5300 hc         1 BWS       0.055200
     24 H9          -2.0580     1.3220    -0.2180 hc         1 BWS       0.055200
     25 H10          1.4880    -1.1110     0.6330 h1         1 BWS       0.079700
     26 H11          1.6250    -1.4210    -2.4090 hc         1 BWS       0.039033
     27 H12          2.5980    -2.3160    -1.2350 hc         1 BWS       0.039033
     28 H13          0.8530    -2.5540    -1.2940 hc         1 BWS       0.039033
     29 H14          4.7050     1.8770     0.3430 h1         1 BWS       0.033700
     30 H15          5.2070     0.9420    -1.0520 h1         1 BWS       0.033700
     31 H16          0.1430     0.7830    -1.1290 hn         1 BWS       0.329500
     32 H17          3.7590    -0.7520     0.6730 hn         1 BWS       0.343500
     33 NAQ          3.6790     0.0680     0.0860 ns         1 BWS      -0.527900
     34 OAP          2.3770     1.3500    -1.2370 o          1 BWS      -0.668100
@<TRIPOS>BOND
     1     1     2 1   
     2     1    18 1   
     3     1    19 1   
     4     2     3 1   
     5     2     5 1   
     6     2    20 1   
     7     3     4 1   
     8     3     6 1   
     9     5     7 1   
    10     5    21 1   
    11     5    22 1   
    12     7     8 1   
    13     7    23 1   
    14     7    24 1   
    15     8    14 1   
    16     8    15 2   
    17     9    10 1   
    18     9    11 1   
    19     9    14 1   
    20     9    25 1   
    21    10    26 1   
    22    10    27 1   
    23    10    28 1   
    24    11    33 1   
    25    11    34 2   
    26    12    13 1   
    27    12    29 1   
    28    12    30 1   
    29    12    33 1   
    30    13    16 1   
    31    13    17 1   
    32    14    31 1   
    33    32    33 1   
@<TRIPOS>SUBSTRUCTURE
     1 BWS         1 TEMP              0 ****  ****    0 ROOT
