@<TRIPOS>MOLECULE
BWS
   34    33     1     0     0
SMALL
No Charge or Current Charge


@<TRIPOS>ATOM
      1 N           -4.4750     1.9770    -0.6220 n8         1 BWS      -1.000200
      2 CA          -4.6700     0.5970    -0.0430 c3         1 BWS       0.010500
      3 C           -5.5980     0.5060     1.2400 c          1 BWS       0.693000
      4 O           -5.3610     1.2480     2.1850 o          1 BWS      -0.739500
      5 CB          -3.3040    -0.0870     0.2350 c3         1 BWS      -0.040400
      6 OXT         -6.5800    -0.2220     1.1960 o          1 BWS      -0.739500
      7 CAG         -2.4460    -0.3440    -1.0320 c3         1 BWS      -0.152400
      8 CAH         -1.1480    -1.0800    -0.6890 c          1 BWS       0.596100
      9 CAK          1.3670    -0.7950    -0.4960 c3         1 BWS       0.030700
     10 CAL          1.8940    -1.6220    -1.6940 c3         1 BWS      -0.105100
     11 CAO          2.3100     0.4000    -0.1580 c          1 BWS       0.578100
     12 CAR          4.6260     1.0050     0.6890 c3         1 BWS      -0.055000
     13 CAS          5.9820     0.2980     0.9760 c          1 BWS       0.713000
     14 NAJ         -0.0070    -0.3130    -0.7560 ns         1 BWS      -0.506900
     15 OAI         -1.1220    -2.2690    -0.4010 o          1 BWS      -0.628100
     16 OAT          5.9670    -0.8670     1.3510 o          1 BWS      -0.733500
     17 OAU          7.0110     0.9250     0.7710 o          1 BWS      -0.733500
     18 H1          -5.3940     2.3740    -0.8550 hn         1 BWS       0.379000
     19 H2          -4.1390     2.5950     0.1260 hn         1 BWS       0.379000
     20 H4          -5.1710     0.0040    -0.8210 h1         1 BWS       0.031700
     21 H5          -2.7300     0.5160     0.9500 hc         1 BWS       0.053200
     22 H6          -3.4940    -1.0500     0.7250 hc         1 BWS       0.053200
     23 H8          -3.0280    -0.9640    -1.7240 hc         1 BWS       0.055200
     24 H9          -2.2140     0.6180    -1.5040 hc         1 BWS       0.055200
     25 H10          1.3460    -1.4410     0.3920 h1         1 BWS       0.079700
     26 H11          1.9510    -1.0020    -2.5970 hc         1 BWS       0.039033
     27 H12          2.8950    -2.0190    -1.4870 hc         1 BWS       0.039033
     28 H13          1.2350    -2.4730    -1.9030 hc         1 BWS       0.039033
     29 H14          4.3140     1.5380     1.5950 h1         1 BWS       0.033700
     30 H15          4.7710     1.7320    -0.1200 h1         1 BWS       0.033700
     31 H16         -0.1300     0.6680    -0.9820 hn         1 BWS       0.329500
     32 H17          3.7650    -0.9430     0.3780 hn         1 BWS       0.343500
     33 NAQ          3.5640     0.0490     0.2960 ns         1 BWS      -0.460900
     34 OAP          1.9740     1.5750    -0.2760 o          1 BWS      -0.668100
@<TRIPOS>BOND
     1     1     2 1   
     2     1    18 1   
     3     1    19 1   
     4     2     3 1   
     5     2     5 1   
     6     2    20 1   
     7     3     4 1   
     8     3     6 1   
     9     5     7 1   
    10     5    21 1   
    11     5    22 1   
    12     7     8 1   
    13     7    23 1   
    14     7    24 1   
    15     8    14 1   
    16     8    15 2   
    17     9    10 1   
    18     9    11 1   
    19     9    14 1   
    20     9    25 1   
    21    10    26 1   
    22    10    27 1   
    23    10    28 1   
    24    11    33 1   
    25    11    34 2   
    26    12    13 1   
    27    12    29 1   
    28    12    30 1   
    29    12    33 1   
    30    13    16 1   
    31    13    17 1   
    32    14    31 1   
    33    32    33 1   
@<TRIPOS>SUBSTRUCTURE
     1 BWS         1 TEMP              0 ****  ****    0 ROOT
