@<TRIPOS>MOLECULE
BWT
   24    25     1     0     0
SMALL
No Charge or Current Charge


@<TRIPOS>ATOM
      1 NAB          3.4890     1.0220    -0.0390 nc         1 BWT      -0.494800
      2 NAA          4.7230     0.4340     0.0120 na         1 BWT       0.127600
      3 NAC          4.6790    -0.9240     0.1090 nc         1 BWT      -0.143800
      4 NAE          3.4110    -1.2200     0.1210 nd         1 BWT      -0.372000
      5 CAD          2.7040    -0.0380     0.0310 cd         1 BWT       0.518500
      6 CAF          1.2230     0.0360     0.0150 ca         1 BWT      -0.045500
      7 CAK          0.4410    -1.1370     0.0940 ca         1 BWT      -0.081000
      8 CAI         -0.9640    -1.0720     0.0790 ca         1 BWT      -0.059000
      9 CAJ          0.5600     1.2790    -0.0780 ca         1 BWT      -0.081000
     10 CAH         -0.8430     1.3460    -0.0930 ca         1 BWT      -0.059000
     11 CAG         -1.6280     0.1750    -0.0150 ca         1 BWT      -0.180600
     12 CAL         -3.1390     0.2920    -0.0340 c          1 BWT       0.619700
     13 OAM         -3.7100     1.3710    -0.1160 o          1 BWT      -0.535100
     14 NAN         -3.8760    -0.8920     0.0450 ns         1 BWT      -0.409300
     15 NAO         -5.3880    -0.7860     0.0270 nz         1 BWT      -0.762200
     16 HAA          5.6020     0.9520    -0.0190 hn         1 BWT       0.422000
     17 HAK          0.9190    -2.1120     0.1670 ha         1 BWT       0.157000
     18 HAI         -1.5170    -2.0050     0.1420 ha         1 BWT       0.128500
     19 HAJ          1.1310     2.2030    -0.1400 ha         1 BWT       0.157000
     20 HAH         -1.3190     2.3230    -0.1670 ha         1 BWT       0.128500
     21 HAN         -3.3820    -1.7840     0.1130 hn         1 BWT       0.376500
     22 HAQ         -5.8960    -1.0520     0.8900 hn         1 BWT       0.529000
     23 HAZ         -5.7040     0.1990    -0.0460 hn         1 BWT       0.529000
     24 HAP         -5.8840    -1.1730    -0.7960 hn         1 BWT       0.529000
@<TRIPOS>BOND
     1     1     2 1   
     2     1     5 2   
     3     2     3 1   
     4     2    16 1   
     5     3     4 2   
     6     4     5 1   
     7     5     6 1   
     8     6     7 ar  
     9     6     9 ar  
    10     7     8 ar  
    11     7    17 1   
    12     8    11 ar  
    13     8    18 1   
    14     9    10 ar  
    15     9    19 1   
    16    10    11 ar  
    17    10    20 1   
    18    11    12 1   
    19    12    13 2   
    20    12    14 1   
    21    14    15 1   
    22    14    21 1   
    23    15    22 1   
    24    15    23 1   
    25    15    24 1   
@<TRIPOS>SUBSTRUCTURE
     1 BWT         1 TEMP              0 ****  ****    0 ROOT
