@<TRIPOS>MOLECULE
BWT
   24    25     1     0     0
SMALL
bcc


@<TRIPOS>ATOM
      1 NAB          3.4110     0.9790     0.1590 nc         1 BWT      -0.494800
      2 NAA          4.5830     0.4110     0.1510 na         1 BWT       0.177900
      3 NAC          4.5560    -0.8810     0.0280 nc         1 BWT      -0.143800
      4 NAE          3.3100    -1.2070    -0.0510 nd         1 BWT      -0.372000
      5 CAD          2.6090    -0.0610     0.0300 cd         1 BWT       0.518500
      6 CAF          1.1530     0.0190    -0.0200 ca         1 BWT      -0.045500
      7 CAK          0.3960    -1.1440    -0.1420 ca         1 BWT      -0.099000
      8 CAI         -0.9850    -1.0750    -0.1910 ca         1 BWT      -0.077000
      9 CAJ          0.5090     1.2540     0.0460 ca         1 BWT      -0.099000
     10 CAH         -0.8690     1.3230    -0.0100 ca         1 BWT      -0.077000
     11 CAG         -1.6270     0.1600    -0.1200 ca         1 BWT      -0.180600
     12 CAL         -3.1000     0.3000    -0.1920 c          1 BWT       0.686700
     13 OAM         -3.6680     1.3250    -0.5050 o          1 BWT      -0.535100
     14 NAN         -3.8120    -0.8390     0.0810 ns         1 BWT      -0.476300
     15 NAO         -5.2000    -0.7260     0.1220 nz         1 BWT      -0.596600
     16 HAA          5.4490     0.9290     0.2360 hn         1 BWT       0.371700
     17 HAK          0.8820    -2.1080    -0.2060 ha         1 BWT       0.175000
     18 HAI         -1.5420    -1.9940    -0.3120 ha         1 BWT       0.146500
     19 HAJ          1.0860     2.1640     0.1410 ha         1 BWT       0.175000
     20 HAH         -1.3560     2.2880     0.0400 ha         1 BWT       0.146500
     21 HAN         -3.4540    -1.5800     0.6670 hn         1 BWT       0.376500
     22 HAQ         -5.5510    -0.3940     1.0250 hn         1 BWT       0.473800
     23 HAZ         -5.5190    -0.0710    -0.5990 hn         1 BWT       0.473800
     24 HAP         -5.6270    -1.6340    -0.0760 hn         1 BWT       0.473800
@<TRIPOS>BOND
     1     1     2 1   
     2     1     5 2   
     3     2     3 1   
     4     2    16 1   
     5     3     4 2   
     6     4     5 1   
     7     5     6 1   
     8     6     7 ar  
     9     6     9 ar  
    10     7     8 ar  
    11     7    17 1   
    12     8    11 ar  
    13     8    18 1   
    14     9    10 ar  
    15     9    19 1   
    16    10    11 ar  
    17    10    20 1   
    18    11    12 1   
    19    12    13 2   
    20    12    14 1   
    21    14    15 1   
    22    14    21 1   
    23    15    22 1   
    24    15    23 1   
    25    15    24 1   
@<TRIPOS>SUBSTRUCTURE
     1 BWT         1 TEMP              0 ****  ****    0 ROOT
