@<TRIPOS>MOLECULE
BWW
   41    43     1     0     0
SMALL
No Charge or Current Charge


@<TRIPOS>ATOM
      1 F           -1.3160    -4.0800     1.6010 f          1 BWW      -0.147000
      2 C13         -2.2460    -3.1550     1.2750 ca         1 BWW       0.155000
      3 C12         -1.8460    -1.9170     0.7490 ca         1 BWW      -0.088000
      4 C14         -3.6070    -3.4390     1.4600 ca         1 BWW      -0.124000
      5 C15         -4.5720    -2.4740     1.1220 ca         1 BWW      -0.133000
      6 C16         -4.1780    -1.2310     0.5970 ca         1 BWW       0.123100
      7 O4          -5.1430    -0.3090     0.3180 oh         1 BWW      -0.549100
      8 C11         -2.8030    -0.9330     0.3930 cp         1 BWW      -0.109000
      9 C7          -2.3450     0.3700    -0.1740 cp         1 BWW      -0.058000
     10 C6          -1.3740     1.1450     0.5050 ca         1 BWW       0.019000
     11 C8          -2.8360     0.8440    -1.4150 ca         1 BWW      -0.061000
     12 C9          -2.3790     2.0600    -1.9520 ca         1 BWW      -0.137000
     13 C10         -1.4170     2.8190    -1.2670 ca         1 BWW      -0.021000
     14 C5          -0.9110     2.3620    -0.0340 ca         1 BWW      -0.299500
     15 S            0.3500     3.3060     0.8320 sy         1 BWW       1.133600
     16 O2           0.2670     4.7160     0.4440 o          1 BWW      -0.547500
     17 O3           0.4430     2.8840     2.2330 o          1 BWW      -0.547500
     18 N            1.8050     2.8250     0.1400 nu         1 BWW      -0.842100
     19 C4           2.2750     1.5410    -0.1080 ca         1 BWW       0.241000
     20 C3           2.0160     0.4620     0.7520 ca         1 BWW      -0.184000
     21 C2           2.5060    -0.8210     0.4550 ca         1 BWW      -0.032000
     22 C17          3.0440     1.3280    -1.2570 ca         1 BWW      -0.243000
     23 C18          3.5350     0.0510    -1.5580 ca         1 BWW       0.222100
     24 O5           4.2720    -0.1110    -2.6850 oh         1 BWW      -0.631100
     25 C1           3.2730    -1.0470    -0.7110 ca         1 BWW      -0.271600
     26 C            3.7950    -2.4340    -1.0190 c          1 BWW       0.722600
     27 O1           3.5400    -3.3410    -0.2430 o          1 BWW      -0.684500
     28 O            4.4550    -2.5850    -2.0390 o          1 BWW      -0.684500
     29 H1          -0.7860    -1.7230     0.6040 ha         1 BWW       0.163000
     30 H2          -3.9110    -4.4000     1.8680 ha         1 BWW       0.127000
     31 H3          -5.6270    -2.6880     1.2750 ha         1 BWW       0.120000
     32 H4          -4.6940     0.5230     0.0580 ho         1 BWW       0.468000
     33 H5          -0.9870     0.7860     1.4570 ha         1 BWW       0.152000
     34 H6          -3.5610     0.2550    -1.9720 ha         1 BWW       0.119000
     35 H7          -2.7630     2.4080    -2.9080 ha         1 BWW       0.111000
     36 H8          -1.0640     3.7540    -1.7000 ha         1 BWW       0.129000
     37 H9           1.9980     3.5160    -0.5710 hn         1 BWW       0.476000
     38 H10          1.4470     0.6040     1.6630 ha         1 BWW       0.125000
     39 H11          2.2880    -1.6380     1.1420 ha         1 BWW       0.131000
     40 H12          3.2610     2.1530    -1.9280 ha         1 BWW       0.106000
     41 H13          4.5010    -1.0860    -2.6850 ho         1 BWW       0.554000
@<TRIPOS>BOND
     1     1     2 1   
     2     2     3 ar  
     3     2     4 ar  
     4     3     8 ar  
     5     3    29 1   
     6     4     5 ar  
     7     4    30 1   
     8     5     6 ar  
     9     5    31 1   
    10     6     7 1   
    11     6     8 ar  
    12     7    32 1   
    13     8     9 1   
    14     9    10 ar  
    15     9    11 ar  
    16    10    14 ar  
    17    10    33 1   
    18    11    12 ar  
    19    11    34 1   
    20    12    13 ar  
    21    12    35 1   
    22    13    14 ar  
    23    13    36 1   
    24    14    15 1   
    25    15    16 2   
    26    15    17 2   
    27    15    18 1   
    28    18    19 1   
    29    18    37 1   
    30    19    20 ar  
    31    19    22 ar  
    32    20    21 ar  
    33    20    38 1   
    34    21    25 ar  
    35    21    39 1   
    36    22    23 ar  
    37    22    40 1   
    38    23    24 1   
    39    23    25 ar  
    40    24    41 1   
    41    25    26 1   
    42    26    27 1   
    43    26    28 1   
@<TRIPOS>SUBSTRUCTURE
     1 BWW         1 TEMP              0 ****  ****    0 ROOT
