@<TRIPOS>MOLECULE
BWW
   41    43     1     0     0
SMALL
abcg2


@<TRIPOS>ATOM
      1 F           -0.3460    -3.8760     0.7030 f          1 BWW      -0.147000
      2 C13         -1.4050    -3.0610     0.5560 ca         1 BWW       0.155000
      3 C12         -1.1930    -1.7460     0.2050 ca         1 BWW      -0.088000
      4 C14         -2.6780    -3.5600     0.7530 ca         1 BWW      -0.124000
      5 C15         -3.7590    -2.7070     0.6060 ca         1 BWW      -0.133000
      6 C16         -3.5730    -1.3730     0.2530 ca         1 BWW       0.123100
      7 O4          -4.6780    -0.6050     0.1470 oh         1 BWW      -0.549100
      8 C11         -2.2790    -0.8870     0.0350 cp         1 BWW      -0.109000
      9 C7          -2.0280     0.5150    -0.3590 cp         1 BWW      -0.058000
     10 C6          -1.1350     1.2860     0.3800 ca         1 BWW       0.019000
     11 C8          -2.6250     1.0760    -1.4890 ca         1 BWW      -0.061000
     12 C9          -2.3350     2.3770    -1.8760 ca         1 BWW      -0.137000
     13 C10         -1.4290     3.1380    -1.1550 ca         1 BWW      -0.021000
     14 C5          -0.8400     2.5770    -0.0300 ca         1 BWW      -0.299500
     15 S            0.4240     3.4650     0.8310 sy         1 BWW       1.133600
     16 O2           0.3150     4.8810     0.5310 o          1 BWW      -0.547500
     17 O3           0.4370     3.0090     2.2080 o          1 BWW      -0.547500
     18 N            1.8460     2.9620     0.1180 nu         1 BWW      -0.842100
     19 C4           2.0950     1.5660     0.0370 ca         1 BWW       0.241000
     20 C3           2.4340     0.8540     1.1860 ca         1 BWW      -0.184000
     21 C2           2.6500    -0.5090     1.0810 ca         1 BWW      -0.032000
     22 C17          1.9900     0.9290    -1.1900 ca         1 BWW      -0.243000
     23 C18          2.2330    -0.4430    -1.2910 ca         1 BWW       0.222100
     24 O5           2.1350    -1.0420    -2.4700 oh         1 BWW      -0.631100
     25 C1           2.5570    -1.1790    -0.1330 ca         1 BWW      -0.271600
     26 C            2.8040    -2.6610    -0.2300 c          1 BWW       0.722600
     27 O1           3.1130    -3.2920     0.7820 o          1 BWW      -0.684500
     28 O            2.6770    -3.1580    -1.3950 o          1 BWW      -0.684500
     29 H1          -0.1840    -1.3840     0.0440 ha         1 BWW       0.163000
     30 H2          -2.8300    -4.5960     1.0260 ha         1 BWW       0.127000
     31 H3          -4.7620    -3.0750     0.7760 ha         1 BWW       0.120000
     32 H4          -4.4510     0.3310     0.1000 ho         1 BWW       0.468000
     33 H5          -0.6760     0.8690     1.2670 ha         1 BWW       0.152000
     34 H6          -3.2990     0.4830    -2.0960 ha         1 BWW       0.119000
     35 H7          -2.8070     2.7940    -2.7540 ha         1 BWW       0.111000
     36 H8          -1.1920     4.1450    -1.4680 ha         1 BWW       0.129000
     37 H9           2.0010     3.4570    -0.7550 hn         1 BWW       0.476000
     38 H10          2.5370     1.3580     2.1360 ha         1 BWW       0.125000
     39 H11          2.9110    -1.0730     1.9670 ha         1 BWW       0.131000
     40 H12          1.7110     1.4880    -2.0750 ha         1 BWW       0.106000
     41 H13          2.3380    -2.0320    -2.2460 ho         1 BWW       0.554000
@<TRIPOS>BOND
     1     1     2 1   
     2     2     3 ar  
     3     2     4 ar  
     4     3     8 ar  
     5     3    29 1   
     6     4     5 ar  
     7     4    30 1   
     8     5     6 ar  
     9     5    31 1   
    10     6     7 1   
    11     6     8 ar  
    12     7    32 1   
    13     8     9 1   
    14     9    10 ar  
    15     9    11 ar  
    16    10    14 ar  
    17    10    33 1   
    18    11    12 ar  
    19    11    34 1   
    20    12    13 ar  
    21    12    35 1   
    22    13    14 ar  
    23    13    36 1   
    24    14    15 1   
    25    15    16 2   
    26    15    17 2   
    27    15    18 1   
    28    18    19 1   
    29    18    37 1   
    30    19    20 ar  
    31    19    22 ar  
    32    20    21 ar  
    33    20    38 1   
    34    21    25 ar  
    35    21    39 1   
    36    22    23 ar  
    37    22    40 1   
    38    23    24 1   
    39    23    25 ar  
    40    24    41 1   
    41    25    26 1   
    42    26    27 1   
    43    26    28 1   
@<TRIPOS>SUBSTRUCTURE
     1 BWW         1 TEMP              0 ****  ****    0 ROOT
