@<TRIPOS>MOLECULE
BWX
   52    53     1     0     0
SMALL
No Charge or Current Charge


@<TRIPOS>ATOM
      1 O3           2.1460     3.4280    -1.9100 o          1 BWX      -0.723000
      2 C15          2.2340     3.2210    -0.7060 c          1 BWX       0.716000
      3 O2           2.0730     4.0930     0.1370 o          1 BWX      -0.723000
      4 C14          2.4510     1.7570    -0.2180 c3         1 BWX      -0.038300
      5 C16          3.9200     1.3090    -0.4250 c3         1 BWX      -0.040100
      6 C17          4.1860    -0.1260     0.0200 ca         1 BWX      -0.043300
      7 C22          4.3850    -0.4200     1.3830 ca         1 BWX      -0.104000
      8 C21          4.6230    -1.7430     1.7960 ca         1 BWX      -0.116500
      9 C20          4.6620    -2.7790     0.8480 ca         1 BWX      -0.132000
     10 C19          4.4650    -2.4920    -0.5130 ca         1 BWX      -0.116500
     11 C18          4.2290    -1.1700    -0.9260 ca         1 BWX      -0.104000
     12 N1           1.4960     0.8350    -0.8830 ns         1 BWX      -0.463900
     13 C13          0.8420    -0.2170    -0.2740 c          1 BWX       0.597100
     14 O1           0.9170    -0.4230     0.9310 o          1 BWX      -0.632100
     15 C11         -0.0020    -1.0950    -1.2250 c3         1 BWX      -0.102400
     16 C12          0.5330    -2.5470    -1.2690 c3         1 BWX      -0.074100
     17 C8          -1.4910    -1.0150    -0.8720 ca         1 BWX      -0.063300
     18 C7          -2.3620    -0.2490    -1.6730 ca         1 BWX      -0.094500
     19 C6          -3.7300    -0.1620    -1.3610 ca         1 BWX      -0.112000
     20 C9          -2.0140    -1.6860     0.2530 ca         1 BWX      -0.094500
     21 C10         -3.3820    -1.5990     0.5640 ca         1 BWX      -0.112000
     22 C5          -4.2480    -0.8370    -0.2400 ca         1 BWX      -0.090300
     23 C4          -5.7320    -0.7410     0.1040 c3         1 BWX      -0.022100
     24 C1          -6.0200     0.1440     1.3460 c3         1 BWX      -0.059700
     25 C3          -5.5530     1.6050     1.1470 c3         1 BWX      -0.087600
     26 C2          -7.5140     0.0880     1.7400 c3         1 BWX      -0.087600
     27 H2           2.2420     1.7510     0.8590 h1         1 BWX       0.068700
     28 H3           4.1820     1.4260    -1.4840 hc         1 BWX       0.054200
     29 H4           4.5780     1.9950     0.1230 hc         1 BWX       0.054200
     30 H5           4.3500     0.3760     2.1230 ha         1 BWX       0.109500
     31 H6           4.7740    -1.9640     2.8500 ha         1 BWX       0.093500
     32 H7           4.8440    -3.8030     1.1680 ha         1 BWX       0.092000
     33 H8           4.4940    -3.2940    -1.2470 ha         1 BWX       0.093500
     34 H9           4.0740    -0.9570    -1.9810 ha         1 BWX       0.109500
     35 H10          1.3400     0.9540    -1.8780 hn         1 BWX       0.325500
     36 H11          0.1290    -0.6970    -2.2390 hc         1 BWX       0.055700
     37 H12         -0.0770    -3.1620    -1.9420 hc         1 BWX       0.035700
     38 H13          1.5650    -2.5620    -1.6380 hc         1 BWX       0.035700
     39 H14          0.5250    -3.0100    -0.2760 hc         1 BWX       0.035700
     40 H15         -1.9820     0.2830    -2.5420 ha         1 BWX       0.122000
     41 H16         -4.3850     0.4350    -1.9900 ha         1 BWX       0.103000
     42 H17         -1.3620    -2.2720     0.8960 ha         1 BWX       0.122000
     43 H18         -3.7670    -2.1230     1.4360 ha         1 BWX       0.103000
     44 H19         -6.2980    -0.3530    -0.7520 hc         1 BWX       0.037200
     45 H20         -6.1210    -1.7500     0.2890 hc         1 BWX       0.037200
     46 H21         -5.4510    -0.2700     2.1880 hc         1 BWX       0.046700
     47 H22         -5.7660     2.2050     2.0400 hc         1 BWX       0.031700
     48 H23         -4.4720     1.6510     0.9660 hc         1 BWX       0.031700
     49 H24         -6.0650     2.0660     0.2940 hc         1 BWX       0.031700
     50 H25         -7.8250    -0.9450     1.9360 hc         1 BWX       0.031700
     51 H26         -7.6980     0.6730     2.6480 hc         1 BWX       0.031700
     52 H27         -8.1450     0.4900     0.9380 hc         1 BWX       0.031700
@<TRIPOS>BOND
     1     1     2 1   
     2     2     3 1   
     3     2     4 1   
     4     4     5 1   
     5     4    12 1   
     6     4    27 1   
     7     5     6 1   
     8     5    28 1   
     9     5    29 1   
    10     6     7 ar  
    11     6    11 ar  
    12     7     8 ar  
    13     7    30 1   
    14     8     9 ar  
    15     8    31 1   
    16     9    10 ar  
    17     9    32 1   
    18    10    11 ar  
    19    10    33 1   
    20    11    34 1   
    21    12    13 1   
    22    12    35 1   
    23    13    14 2   
    24    13    15 1   
    25    15    16 1   
    26    15    17 1   
    27    15    36 1   
    28    16    37 1   
    29    16    38 1   
    30    16    39 1   
    31    17    18 ar  
    32    17    20 ar  
    33    18    19 ar  
    34    18    40 1   
    35    19    22 ar  
    36    19    41 1   
    37    20    21 ar  
    38    20    42 1   
    39    21    22 ar  
    40    21    43 1   
    41    22    23 1   
    42    23    24 1   
    43    23    44 1   
    44    23    45 1   
    45    24    25 1   
    46    24    26 1   
    47    24    46 1   
    48    25    47 1   
    49    25    48 1   
    50    25    49 1   
    51    26    50 1   
    52    26    51 1   
    53    26    52 1   
@<TRIPOS>SUBSTRUCTURE
     1 BWX         1 TEMP              0 ****  ****    0 ROOT
