@<TRIPOS>MOLECULE
BWX
   52    53     1     0     0
SMALL
abcg2


@<TRIPOS>ATOM
      1 O3           1.0090     2.9240    -1.9760 o          1 BWX      -0.723000
      2 C15          1.5710     2.9370    -0.8640 c          1 BWX       0.716000
      3 O2           1.8780     3.9310    -0.1820 o          1 BWX      -0.723000
      4 C14          1.9860     1.5690    -0.2690 c3         1 BWX      -0.038300
      5 C16          3.5190     1.4290    -0.3630 c3         1 BWX      -0.040100
      6 C17          4.0050     0.0950     0.1200 ca         1 BWX      -0.043300
      7 C22          4.2520    -0.1250     1.4730 ca         1 BWX      -0.104000
      8 C21          4.6520    -1.3720     1.9310 ca         1 BWX      -0.116500
      9 C20          4.8100    -2.4250     1.0390 ca         1 BWX      -0.132000
     10 C19          4.5700    -2.2170    -0.3120 ca         1 BWX      -0.116500
     11 C18          4.1750    -0.9660    -0.7650 ca         1 BWX      -0.104000
     12 N1           1.3160     0.5000    -0.9630 ns         1 BWX      -0.463900
     13 C13          0.7860    -0.5850    -0.3860 c          1 BWX       0.597100
     14 O1           0.8670    -0.8420     0.8070 o          1 BWX      -0.632100
     15 C11          0.0020    -1.4900    -1.3360 c3         1 BWX      -0.102400
     16 C12          0.4590    -2.9340    -1.1860 c3         1 BWX      -0.074100
     17 C8          -1.4660    -1.2560    -1.0520 ca         1 BWX      -0.063300
     18 C7          -2.0980    -0.1390    -1.5960 ca         1 BWX      -0.094500
     19 C6          -3.4240     0.1470    -1.3050 ca         1 BWX      -0.112000
     20 C9          -2.2080    -2.0780    -0.2080 ca         1 BWX      -0.094500
     21 C10         -3.5350    -1.7920     0.0760 ca         1 BWX      -0.112000
     22 C5          -4.1670    -0.6720    -0.4590 ca         1 BWX      -0.090300
     23 C4          -5.5890    -0.3490    -0.0940 c3         1 BWX      -0.022100
     24 C1          -5.7470     0.1520     1.3500 c3         1 BWX      -0.059700
     25 C3          -4.9700     1.4410     1.5890 c3         1 BWX      -0.087600
     26 C2          -7.2230     0.3430     1.6810 c3         1 BWX      -0.087600
     27 H2           1.7000     1.5300     0.7840 h1         1 BWX       0.068700
     28 H3           3.8210     1.5770    -1.4040 hc         1 BWX       0.054200
     29 H4           3.9680     2.2350     0.2190 hc         1 BWX       0.054200
     30 H5           4.1310     0.6900     2.1780 ha         1 BWX       0.109500
     31 H6           4.8430    -1.5230     2.9870 ha         1 BWX       0.093500
     32 H7           5.1220    -3.3990     1.3950 ha         1 BWX       0.092000
     33 H8           4.6940    -3.0300    -1.0170 ha         1 BWX       0.093500
     34 H9           3.9970    -0.8100    -1.8230 ha         1 BWX       0.109500
     35 H10          1.1100     0.6900    -1.9310 hn         1 BWX       0.325500
     36 H11          0.1930    -1.1750    -2.3660 hc         1 BWX       0.055700
     37 H12         -0.1250    -3.5950    -1.8270 hc         1 BWX       0.035700
     38 H13          1.5080    -3.0310    -1.4680 hc         1 BWX       0.035700
     39 H14          0.3660    -3.2840    -0.1590 hc         1 BWX       0.035700
     40 H15         -1.5440     0.5240    -2.2520 ha         1 BWX       0.122000
     41 H16         -3.8860     1.0250    -1.7400 ha         1 BWX       0.103000
     42 H17         -1.7570    -2.9570     0.2330 ha         1 BWX       0.122000
     43 H18         -4.0890    -2.4540     0.7330 ha         1 BWX       0.103000
     44 H19         -5.9840     0.4090    -0.7780 hc         1 BWX       0.037200
     45 H20         -6.2130    -1.2380    -0.2230 hc         1 BWX       0.037200
     46 H21         -5.3450    -0.6200     2.0160 hc         1 BWX       0.046700
     47 H22         -5.0680     1.7690     2.6250 hc         1 BWX       0.031700
     48 H23         -3.9070     1.3240     1.3770 hc         1 BWX       0.031700
     49 H24         -5.3490     2.2460     0.9520 hc         1 BWX       0.031700
     50 H25         -7.7900    -0.5780     1.5370 hc         1 BWX       0.031700
     51 H26         -7.3570     0.6590     2.7170 hc         1 BWX       0.031700
     52 H27         -7.6680     1.1100     1.0420 hc         1 BWX       0.031700
@<TRIPOS>BOND
     1     1     2 1   
     2     2     3 1   
     3     2     4 1   
     4     4     5 1   
     5     4    12 1   
     6     4    27 1   
     7     5     6 1   
     8     5    28 1   
     9     5    29 1   
    10     6     7 ar  
    11     6    11 ar  
    12     7     8 ar  
    13     7    30 1   
    14     8     9 ar  
    15     8    31 1   
    16     9    10 ar  
    17     9    32 1   
    18    10    11 ar  
    19    10    33 1   
    20    11    34 1   
    21    12    13 1   
    22    12    35 1   
    23    13    14 2   
    24    13    15 1   
    25    15    16 1   
    26    15    17 1   
    27    15    36 1   
    28    16    37 1   
    29    16    38 1   
    30    16    39 1   
    31    17    18 ar  
    32    17    20 ar  
    33    18    19 ar  
    34    18    40 1   
    35    19    22 ar  
    36    19    41 1   
    37    20    21 ar  
    38    20    42 1   
    39    21    22 ar  
    40    21    43 1   
    41    22    23 1   
    42    23    24 1   
    43    23    44 1   
    44    23    45 1   
    45    24    25 1   
    46    24    26 1   
    47    24    46 1   
    48    25    47 1   
    49    25    48 1   
    50    25    49 1   
    51    26    50 1   
    52    26    51 1   
    53    26    52 1   
@<TRIPOS>SUBSTRUCTURE
     1 BWX         1 TEMP              0 ****  ****    0 ROOT
