@<TRIPOS>MOLECULE
BWZ
   24    25     1     0     0
SMALL
abcg2


@<TRIPOS>ATOM
      1 NAD          3.4630    -0.5740     0.0880 nc         1 BWZ      -0.500800
      2 NAB          4.3240     0.4030     0.1280 na         1 BWZ       0.127600
      3 NAA          3.7950     1.5880     0.1150 nc         1 BWZ      -0.144800
      4 NAC          2.5170     1.4110     0.0650 nd         1 BWZ      -0.379000
      5 CAE          2.3170     0.0800     0.0490 cd         1 BWZ       0.528500
      6 CAF          1.0050    -0.5550    -0.0080 ca         1 BWZ      -0.106500
      7 CAK         -0.1390     0.2290    -0.0890 ca         1 BWZ      -0.004000
      8 CAI          0.8850    -1.9440     0.0100 ca         1 BWZ      -0.023000
      9 CAG         -0.3650    -2.5360    -0.0500 ca         1 BWZ      -0.110000
     10 CAH         -1.5080    -1.7560    -0.1210 ca         1 BWZ      -0.069000
     11 CAJ         -1.3950    -0.3680    -0.1340 ca         1 BWZ      -0.189600
     12 CAL         -2.5720     0.5260    -0.2350 c          1 BWZ       0.626700
     13 OAM         -2.5240     1.6630    -0.6570 o          1 BWZ      -0.536100
     14 NAN         -3.7620    -0.0210     0.1590 ns         1 BWZ      -0.423300
     15 NAO         -4.8710     0.8210     0.1450 nz         1 BWZ      -0.765200
     16 HAB          5.3250     0.2590     0.1600 hn         1 BWZ       0.422000
     17 HAK         -0.0540     1.3070    -0.1070 ha         1 BWZ       0.163000
     18 HAI          1.7690    -2.5660     0.0670 ha         1 BWZ       0.154000
     19 HAG         -0.4520    -3.6140    -0.0480 ha         1 BWZ       0.141000
     20 HAH         -2.4700    -2.2450    -0.1900 ha         1 BWZ       0.111000
     21 HAN         -3.8410    -0.8100     0.7830 hn         1 BWZ       0.383500
     22 HAO         -5.1890     1.0550     1.0890 hn         1 BWZ       0.531000
     23 HAP         -4.6020     1.6970    -0.3220 hn         1 BWZ       0.531000
     24 HAQ         -5.6500     0.4060    -0.3700 hn         1 BWZ       0.531000
@<TRIPOS>BOND
     1     1     2 1   
     2     1     5 2   
     3     2     3 1   
     4     2    16 1   
     5     3     4 2   
     6     4     5 1   
     7     5     6 1   
     8     6     7 ar  
     9     6     8 ar  
    10     7    11 ar  
    11     7    17 1   
    12     8     9 ar  
    13     8    18 1   
    14     9    10 ar  
    15     9    19 1   
    16    10    11 ar  
    17    10    20 1   
    18    11    12 1   
    19    12    13 2   
    20    12    14 1   
    21    14    15 1   
    22    14    21 1   
    23    15    22 1   
    24    15    23 1   
    25    15    24 1   
@<TRIPOS>SUBSTRUCTURE
     1 BWZ         1 TEMP              0 ****  ****    0 ROOT
