@<TRIPOS>MOLECULE
BWZ
   24    25     1     0     0
SMALL
No Charge or Current Charge


@<TRIPOS>ATOM
      1 NAD          3.5440    -0.6200     0.0060 nc         1 BWZ      -0.500800
      2 NAB          4.4630     0.3920    -0.0440 na         1 BWZ       0.127600
      3 NAA          3.9060     1.6350    -0.0930 nc         1 BWZ      -0.144800
      4 NAC          2.6210     1.4290    -0.0740 nd         1 BWZ      -0.379000
      5 CAE          2.4160     0.0650    -0.0140 cd         1 BWZ       0.528500
      6 CAF          1.0770    -0.5630     0.0230 ca         1 BWZ      -0.106500
      7 CAK         -0.0910     0.2320    -0.0020 ca         1 BWZ      -0.004000
      8 CAI          0.9430    -1.9670     0.0840 ca         1 BWZ      -0.023000
      9 CAG         -0.3290    -2.5570     0.1190 ca         1 BWZ      -0.110000
     10 CAH         -1.4850    -1.7610     0.0940 ca         1 BWZ      -0.069000
     11 CAJ         -1.3800    -0.3510     0.0330 ca         1 BWZ      -0.189600
     12 CAL         -2.5960     0.5500     0.0050 c          1 BWZ       0.626700
     13 OAM         -2.5060     1.7690    -0.0480 o          1 BWZ      -0.536100
     14 NAN         -3.8490    -0.0630     0.0410 ns         1 BWZ      -0.423300
     15 NAO         -5.0760     0.8280     0.0120 nz         1 BWZ      -0.765200
     16 HAB          5.4720     0.2450    -0.0460 hn         1 BWZ       0.422000
     17 HAK          0.0010     1.3170    -0.0480 ha         1 BWZ       0.163000
     18 HAI          1.8230    -2.6070     0.1040 ha         1 BWZ       0.154000
     19 HAG         -0.4200    -3.6410     0.1660 ha         1 BWZ       0.141000
     20 HAH         -2.4510    -2.2590     0.1230 ha         1 BWZ       0.111000
     21 HAN         -3.9020    -1.0840     0.0850 hn         1 BWZ       0.383500
     22 HAO         -5.6700     0.8530     0.8620 hn         1 BWZ       0.531000
     23 HAP         -4.8230     1.8330    -0.0320 hn         1 BWZ       0.531000
     24 HAQ         -5.6830     0.7810    -0.8270 hn         1 BWZ       0.531000
@<TRIPOS>BOND
     1     1     2 1   
     2     1     5 2   
     3     2     3 1   
     4     2    16 1   
     5     3     4 2   
     6     4     5 1   
     7     5     6 1   
     8     6     7 ar  
     9     6     8 ar  
    10     7    11 ar  
    11     7    17 1   
    12     8     9 ar  
    13     8    18 1   
    14     9    10 ar  
    15     9    19 1   
    16    10    11 ar  
    17    10    20 1   
    18    11    12 1   
    19    12    13 2   
    20    12    14 1   
    21    14    15 1   
    22    14    21 1   
    23    15    22 1   
    24    15    23 1   
    25    15    24 1   
@<TRIPOS>SUBSTRUCTURE
     1 BWZ         1 TEMP              0 ****  ****    0 ROOT
