@<TRIPOS>MOLECULE
BX0
   38    40     1     0     0
SMALL
bcc


@<TRIPOS>ATOM
      1 C1          11.9630    -7.7160   -32.9710 c3         1 BX0      -0.083100
      2 C2          12.7150    -6.5330   -32.3530 c6         1 BX0      -0.021500
      3 C3          14.2250    -6.6360   -32.5810 c6         1 BX0      -0.070400
      4 C4          14.6200    -6.2520   -33.9980 c6         1 BX0      -0.071400
      5 C5          14.1620    -4.8370   -34.3070 c6         1 BX0       0.159100
      6 O1          14.6250    -4.5010   -35.5970 oh         1 BX0      -0.594800
      7 C6          12.6240    -4.6540   -34.1710 c6         1 BX0      -0.029800
      8 C7          11.9000    -5.3880   -35.3170 c3         1 BX0      -0.068100
      9 C8          12.3370    -3.1440   -34.2460 c6         1 BX0      -0.076400
     10 C9          11.0070    -2.6860   -33.7060 c5         1 BX0       0.159100
     11 O2           9.9100    -3.1540   -34.5200 os         1 BX0      -0.399900
     12 C10          8.8530    -3.4810   -33.7780 c          1 BX0       0.736800
     13 O3           7.7980    -3.7940   -34.2630 o          1 BX0      -0.567500
     14 C11          9.2250    -3.3860   -32.3470 ce         1 BX0      -0.231400
     15 C12          8.3460    -3.4660   -31.3570 c2         1 BX0      -0.116000
     16 C13         10.7130    -3.1950   -32.2960 c5         1 BX0      -0.013300
     17 C14         11.3820    -4.5070   -32.0050 c2         1 BX0      -0.179200
     18 C15         12.1950    -5.1880   -32.8140 c2         1 BX0      -0.077400
     19 H1          12.2650    -8.6410   -32.4750 hc         1 BX0       0.037700
     20 H2          10.8860    -7.6050   -32.8410 hc         1 BX0       0.037700
     21 H3          12.1580    -7.8400   -34.0340 hc         1 BX0       0.037700
     22 H4          12.5390    -6.5880   -31.2750 hc         1 BX0       0.046700
     23 H5          14.5660    -7.6490   -32.3530 hc         1 BX0       0.043200
     24 H6          14.7370    -5.9710   -31.8780 hc         1 BX0       0.043200
     25 H7          14.2070    -6.9590   -34.7220 hc         1 BX0       0.055700
     26 H8          15.7070    -6.3000   -34.1050 hc         1 BX0       0.055700
     27 H9          14.6260    -4.1790   -33.5550 h1         1 BX0       0.023700
     28 H10         14.5540    -3.5500   -35.7190 ho         1 BX0       0.402000
     29 H11         10.8440    -5.5310   -35.0970 hc         1 BX0       0.043033
     30 H12         11.9690    -4.8180   -36.2440 hc         1 BX0       0.043033
     31 H13         12.3220    -6.3720   -35.5160 hc         1 BX0       0.043033
     32 H14         13.0830    -2.6100   -33.6470 hc         1 BX0       0.053700
     33 H15         12.4510    -2.7830   -35.2720 hc         1 BX0       0.053700
     34 H16         10.9700    -1.5930   -33.7270 h1         1 BX0       0.060700
     35 H18          8.6480    -3.3750   -30.3220 ha         1 BX0       0.129500
     36 H19          7.2930    -3.6220   -31.5520 ha         1 BX0       0.129500
     37 H21         10.9960    -2.4540   -31.5450 hc         1 BX0       0.079700
     38 H22         11.1260    -4.9360   -31.0400 ha         1 BX0       0.126000
@<TRIPOS>BOND
     1     1     2 1   
     2     1    19 1   
     3     1    20 1   
     4     1    21 1   
     5     2     3 1   
     6     2    18 1   
     7     2    22 1   
     8     3     4 1   
     9     3    23 1   
    10     3    24 1   
    11     4     5 1   
    12     4    25 1   
    13     4    26 1   
    14     5     6 1   
    15     5     7 1   
    16     5    27 1   
    17     6    28 1   
    18     7     8 1   
    19     7     9 1   
    20     7    18 1   
    21     8    29 1   
    22     8    30 1   
    23     8    31 1   
    24     9    10 1   
    25     9    32 1   
    26     9    33 1   
    27    10    11 1   
    28    10    16 1   
    29    10    34 1   
    30    11    12 1   
    31    12    13 2   
    32    12    14 1   
    33    14    15 2   
    34    14    16 1   
    35    15    35 1   
    36    15    36 1   
    37    16    17 1   
    38    16    37 1   
    39    17    18 2   
    40    17    38 1   
@<TRIPOS>SUBSTRUCTURE
     1 BX0         1 TEMP              0 ****  ****    0 ROOT
