@<TRIPOS>MOLECULE
BX0
   38    40     1     0     0
SMALL
No Charge or Current Charge


@<TRIPOS>ATOM
      1 C1          11.9300    -7.6880   -32.8200 c3         1 BX0      -0.083100
      2 C2          12.7780    -6.4950   -32.2970 c6         1 BX0      -0.021500
      3 C3          14.2900    -6.6510   -32.5890 c6         1 BX0      -0.070400
      4 C4          14.6400    -6.3120   -34.0500 c6         1 BX0      -0.071400
      5 C5          14.2050    -4.8650   -34.3780 c6         1 BX0       0.182300
      6 O1          14.6090    -4.5440   -35.7160 oh         1 BX0      -0.657000
      7 C6          12.6640    -4.6110   -34.1540 c6         1 BX0      -0.029800
      8 C7          11.8110    -5.3240   -35.2630 c3         1 BX0      -0.068100
      9 C8          12.4320    -3.0620   -34.2190 c6         1 BX0      -0.076400
     10 C9          11.0470    -2.6120   -33.7120 c5         1 BX0       0.182300
     11 O2           9.9920    -3.0270   -34.6000 os         1 BX0      -0.423100
     12 C10          8.8890    -3.3690   -33.8840 c          1 BX0       0.661300
     13 O3           7.8020    -3.6170   -34.3860 o          1 BX0      -0.492000
     14 C11          9.2040    -3.4400   -32.4270 ce         1 BX0      -0.231400
     15 C12          8.3030    -3.7140   -31.4530 c2         1 BX0      -0.216000
     16 C13         10.6890    -3.1470   -32.2970 c5         1 BX0      -0.013300
     17 C14         11.3170    -4.5060   -31.9700 c2         1 BX0      -0.229200
     18 C15         12.2000    -5.1470   -32.7710 c2         1 BX0      -0.077400
     19 H1          12.2160    -8.6190   -32.3150 hc         1 BX0       0.037700
     20 H2          10.8630    -7.5270   -32.6280 hc         1 BX0       0.037700
     21 H3          12.0550    -7.8560   -33.8940 hc         1 BX0       0.037700
     22 H4          12.6660    -6.5490   -31.2040 hc         1 BX0       0.046700
     23 H5          14.6200    -7.6720   -32.3500 hc         1 BX0       0.043200
     24 H6          14.8550    -5.9850   -31.9210 hc         1 BX0       0.043200
     25 H7          14.1790    -7.0330   -34.7360 hc         1 BX0       0.055700
     26 H8          15.7250    -6.4080   -34.1920 hc         1 BX0       0.055700
     27 H9          14.7530    -4.2140   -33.6800 h1         1 BX0       0.023700
     28 H10         14.4560    -3.5830   -35.8330 ho         1 BX0       0.441000
     29 H11         10.7630    -5.4350   -34.9620 hc         1 BX0       0.043033
     30 H12         11.8260    -4.7650   -36.2060 hc         1 BX0       0.043033
     31 H13         12.1770    -6.3280   -35.4970 hc         1 BX0       0.043033
     32 H14         13.1840    -2.5560   -33.5970 hc         1 BX0       0.053700
     33 H15         12.5830    -2.6830   -35.2390 hc         1 BX0       0.053700
     34 H16         11.0320    -1.5130   -33.6930 h1         1 BX0       0.060700
     35 H18          8.5890    -3.7530   -30.4020 ha         1 BX0       0.179500
     36 H19          7.2530    -3.9090   -31.6780 ha         1 BX0       0.179500
     37 H21         10.9050    -2.4080   -31.5160 hc         1 BX0       0.079700
     38 H22         11.0450    -4.9680   -31.0190 ha         1 BX0       0.176000
@<TRIPOS>BOND
     1     1     2 1   
     2     1    19 1   
     3     1    20 1   
     4     1    21 1   
     5     2     3 1   
     6     2    18 1   
     7     2    22 1   
     8     3     4 1   
     9     3    23 1   
    10     3    24 1   
    11     4     5 1   
    12     4    25 1   
    13     4    26 1   
    14     5     6 1   
    15     5     7 1   
    16     5    27 1   
    17     6    28 1   
    18     7     8 1   
    19     7     9 1   
    20     7    18 1   
    21     8    29 1   
    22     8    30 1   
    23     8    31 1   
    24     9    10 1   
    25     9    32 1   
    26     9    33 1   
    27    10    11 1   
    28    10    16 1   
    29    10    34 1   
    30    11    12 1   
    31    12    13 2   
    32    12    14 1   
    33    14    15 2   
    34    14    16 1   
    35    15    35 1   
    36    15    36 1   
    37    16    17 1   
    38    16    37 1   
    39    17    18 2   
    40    17    38 1   
@<TRIPOS>SUBSTRUCTURE
     1 BX0         1 TEMP              0 ****  ****    0 ROOT
