@<TRIPOS>MOLECULE
BX1
   51    53     1     0     0
SMALL
No Charge or Current Charge


@<TRIPOS>ATOM
      1 C01         -5.5160     2.9040    -0.6630 c3         1 BX1       0.144900
      2 O02         -5.4390     1.4670    -0.6570 os         1 BX1      -0.333600
      3 C03         -4.2600     0.7750    -0.4190 ca         1 BX1       0.149100
      4 C04         -3.0480     1.4540    -0.1730 ca         1 BX1      -0.209000
      5 C05         -1.8410     0.7540     0.0700 cp         1 BX1      -0.045500
      6 C06         -0.5420     1.4850     0.3350 cp         1 BX1       0.316500
      7 C07         -0.5070     2.8430     0.8190 ca         1 BX1       0.304900
      8 N08          0.6420     3.5340     1.0680 nb         1 BX1      -0.732000
      9 C09          1.7640     2.8370     0.8360 ca         1 BX1       0.534900
     10 N10          2.8380     3.6400     1.0770 nv         1 BX1      -1.035900
     11 C11          1.7740     1.4560     0.3550 ca         1 BX1       0.511900
     12 N12          2.9560     0.7030     0.1000 nh         1 BX1      -0.755300
     13 C13          3.9180     0.4660     1.2120 c6         1 BX1       0.193800
     14 C14          5.3630     0.2750     0.6760 c6         1 BX1      -0.049900
     15 C15          5.4630    -0.8380    -0.4070 c6         1 BX1      -0.199700
     16 C16          5.4630    -2.2770     0.1770 c          1 BX1       0.716000
     17 O17          6.4640    -2.9560     0.0030 o          1 BX1      -0.734500
     18 O18          4.4810    -2.6770     0.7830 o          1 BX1      -0.734500
     19 C19          4.3800    -0.6120    -1.5020 c6         1 BX1      -0.049900
     20 C20          2.9590    -0.3920    -0.9150 c6         1 BX1       0.193800
     21 N21          0.6130     0.7970     0.1070 nb         1 BX1      -0.682000
     22 C22         -1.8990    -0.6640     0.0480 ca         1 BX1      -0.209000
     23 C23         -3.1000    -1.3690    -0.1970 ca         1 BX1       0.149100
     24 O24         -3.1020    -2.7560    -0.2060 os         1 BX1      -0.333600
     25 C25         -1.9230    -3.5510     0.0160 c3         1 BX1       0.144900
     26 C26         -4.3030    -0.6380    -0.4330 ca         1 BX1       0.016100
     27 O27         -5.5500    -1.2170    -0.6850 os         1 BX1      -0.331100
     28 C28         -5.8110    -2.6310    -0.7420 c3         1 BX1       0.150900
     29 H011        -4.8670     3.3270    -1.4400 h1         1 BX1       0.042200
     30 H012        -6.5440     3.2270    -0.8680 h1         1 BX1       0.042200
     31 H013        -5.2190     3.3150     0.3100 h1         1 BX1       0.042200
     32 H04         -3.0280     2.5380    -0.1850 ha         1 BX1       0.135500
     33 H22         -0.9800    -1.2090     0.2350 ha         1 BX1       0.135500
     34 H07         -1.4280     3.3870     1.0220 h4         1 BX1       0.014100
     35 H101         2.6330     4.6300     1.1430 hn         1 BX1       0.471500
     36 H102         3.7150     3.3810     0.6370 hn         1 BX1       0.471500
     37 H131         3.9160     1.3070     1.9190 h1         1 BX1       0.045450
     38 H132         3.6150    -0.4240     1.7830 h1         1 BX1       0.045450
     39 H201         2.5930    -1.3260    -0.4650 h1         1 BX1       0.045450
     40 H202         2.2830    -0.1460    -1.7470 h1         1 BX1       0.045450
     41 H141         5.7070     1.2260     0.2470 hc         1 BX1       0.031700
     42 H142         6.0430     0.0520     1.5100 hc         1 BX1       0.031700
     43 H15          6.4390    -0.7160    -0.8970 hc         1 BX1       0.032700
     44 H191         4.6520     0.2710    -2.0960 hc         1 BX1       0.031700
     45 H192         4.3680    -1.4580    -2.2010 hc         1 BX1       0.031700
     46 H251        -2.1700    -4.6180    -0.0420 h1         1 BX1       0.042200
     47 H252        -1.1600    -3.3380    -0.7430 h1         1 BX1       0.042200
     48 H253        -1.5000    -3.3550     1.0090 h1         1 BX1       0.042200
     49 H281        -5.2270    -3.1060    -1.5400 h1         1 BX1       0.028700
     50 H282        -5.5770    -3.1120     0.2160 h1         1 BX1       0.028700
     51 H283        -6.8730    -2.8080    -0.9540 h1         1 BX1       0.028700
@<TRIPOS>BOND
     1     1     2 1   
     2     1    29 1   
     3     1    30 1   
     4     1    31 1   
     5     2     3 1   
     6     3     4 ar  
     7     3    26 ar  
     8     4     5 ar  
     9     4    32 1   
    10     5     6 1   
    11     5    22 ar  
    12     6     7 ar  
    13     6    21 ar  
    14     7     8 ar  
    15     7    34 1   
    16     8     9 ar  
    17     9    10 1   
    18     9    11 ar  
    19    10    35 1   
    20    10    36 1   
    21    11    12 1   
    22    11    21 ar  
    23    12    13 1   
    24    12    20 1   
    25    13    14 1   
    26    13    37 1   
    27    13    38 1   
    28    14    15 1   
    29    14    41 1   
    30    14    42 1   
    31    15    16 1   
    32    15    19 1   
    33    15    43 1   
    34    16    17 1   
    35    16    18 1   
    36    19    20 1   
    37    19    44 1   
    38    19    45 1   
    39    20    39 1   
    40    20    40 1   
    41    22    23 ar  
    42    22    33 1   
    43    23    24 1   
    44    23    26 ar  
    45    24    25 1   
    46    25    46 1   
    47    25    47 1   
    48    25    48 1   
    49    26    27 1   
    50    27    28 1   
    51    28    49 1   
    52    28    50 1   
    53    28    51 1   
@<TRIPOS>SUBSTRUCTURE
     1 BX1         1 TEMP              0 ****  ****    0 ROOT
