@<TRIPOS>MOLECULE
BX1
   51    53     1     0     0
SMALL
abcg2


@<TRIPOS>ATOM
      1 C01         -5.5210     2.5200    -0.3270 c3         1 BX1       0.144900
      2 O02         -5.4000     1.1130    -0.2610 os         1 BX1      -0.333600
      3 C03         -4.1770     0.5800    -0.0950 ca         1 BX1       0.149100
      4 C04         -3.0060     1.3240     0.0150 ca         1 BX1      -0.209000
      5 C05         -1.7820     0.6790     0.1830 cp         1 BX1      -0.045500
      6 C06         -0.5330     1.4500     0.3240 cp         1 BX1       0.316500
      7 C07         -0.4950     2.7730     0.7150 ca         1 BX1       0.304900
      8 N08          0.6470     3.4610     0.7780 nb         1 BX1      -0.732000
      9 C09          1.7700     2.8380     0.4920 ca         1 BX1       0.534900
     10 N10          2.9380     3.5380     0.5050 nv         1 BX1      -1.035900
     11 C11          1.7590     1.4390     0.1850 ca         1 BX1       0.511900
     12 N12          2.9570     0.7920    -0.0830 nh         1 BX1      -0.755300
     13 C13          3.8730     0.6510     1.0550 c6         1 BX1       0.193800
     14 C14          5.2710     0.3140     0.5720 c6         1 BX1      -0.049900
     15 C15          5.2690    -0.9540    -0.2790 c6         1 BX1      -0.199700
     16 C16          5.0580    -2.2410     0.5580 c          1 BX1       0.716000
     17 O17          5.4850    -2.2300     1.7310 o          1 BX1      -0.734500
     18 O18          4.5190    -3.2110    -0.0140 o          1 BX1      -0.734500
     19 C19          4.2490    -0.7940    -1.4030 c6         1 BX1      -0.049900
     20 C20          2.8720    -0.4290    -0.8710 c6         1 BX1       0.193800
     21 N21          0.6220     0.8040     0.0870 nb         1 BX1      -0.682000
     22 C22         -1.7290    -0.7130     0.2220 ca         1 BX1      -0.209000
     23 C23         -2.8990    -1.4580     0.1100 ca         1 BX1       0.149100
     24 O24         -2.9460    -2.8010     0.1440 os         1 BX1      -0.333600
     25 C25         -1.7400    -3.5120     0.3370 c3         1 BX1       0.144900
     26 C26         -4.1310    -0.8150    -0.0380 ca         1 BX1       0.016100
     27 O27         -5.2760    -1.5420    -0.1130 os         1 BX1      -0.331100
     28 C28         -5.6540    -1.9090    -1.4340 c3         1 BX1       0.150900
     29 H011        -4.9660     2.9390    -1.1700 h1         1 BX1       0.042200
     30 H012        -6.5790     2.7300    -0.4660 h1         1 BX1       0.042200
     31 H013        -5.1850     3.0030     0.5940 h1         1 BX1       0.042200
     32 H04         -3.0430     2.4020    -0.0570 ha         1 BX1       0.135500
     33 H22         -0.7690    -1.1930     0.3450 ha         1 BX1       0.135500
     34 H07         -1.3930     3.3170     0.9790 h4         1 BX1       0.014100
     35 H101         2.8440     4.5410     0.4660 hn         1 BX1       0.471500
     36 H102         3.6780     3.1730    -0.0740 hn         1 BX1       0.471500
     37 H131         3.8830     1.5760     1.6320 h1         1 BX1       0.045450
     38 H132         3.5120    -0.1390     1.7280 h1         1 BX1       0.045450
     39 H201         2.4670    -1.2620    -0.2810 h1         1 BX1       0.045450
     40 H202         2.1800    -0.2630    -1.6970 h1         1 BX1       0.045450
     41 H141         5.6540     1.1550    -0.0150 hc         1 BX1       0.031700
     42 H142         5.9300     0.1980     1.4320 hc         1 BX1       0.031700
     43 H15          6.2630    -1.0560    -0.7360 hc         1 BX1       0.032700
     44 H191         4.5780    -0.0090    -2.0910 hc         1 BX1       0.031700
     45 H192         4.1760    -1.7140    -1.9830 hc         1 BX1       0.031700
     46 H251        -2.0030    -4.5670     0.3520 h1         1 BX1       0.042200
     47 H252        -1.0280    -3.3400    -0.4750 h1         1 BX1       0.042200
     48 H253        -1.2610    -3.2540     1.2840 h1         1 BX1       0.042200
     49 H281        -5.8540    -1.0350    -2.0570 h1         1 BX1       0.028700
     50 H282        -4.8890    -2.5200    -1.9190 h1         1 BX1       0.028700
     51 H283        -6.5680    -2.4950    -1.3550 h1         1 BX1       0.028700
@<TRIPOS>BOND
     1     1     2 1   
     2     1    29 1   
     3     1    30 1   
     4     1    31 1   
     5     2     3 1   
     6     3     4 ar  
     7     3    26 ar  
     8     4     5 ar  
     9     4    32 1   
    10     5     6 1   
    11     5    22 ar  
    12     6     7 ar  
    13     6    21 ar  
    14     7     8 ar  
    15     7    34 1   
    16     8     9 ar  
    17     9    10 1   
    18     9    11 ar  
    19    10    35 1   
    20    10    36 1   
    21    11    12 1   
    22    11    21 ar  
    23    12    13 1   
    24    12    20 1   
    25    13    14 1   
    26    13    37 1   
    27    13    38 1   
    28    14    15 1   
    29    14    41 1   
    30    14    42 1   
    31    15    16 1   
    32    15    19 1   
    33    15    43 1   
    34    16    17 1   
    35    16    18 1   
    36    19    20 1   
    37    19    44 1   
    38    19    45 1   
    39    20    39 1   
    40    20    40 1   
    41    22    23 ar  
    42    22    33 1   
    43    23    24 1   
    44    23    26 ar  
    45    24    25 1   
    46    25    46 1   
    47    25    47 1   
    48    25    48 1   
    49    26    27 1   
    50    27    28 1   
    51    28    49 1   
    52    28    50 1   
    53    28    51 1   
@<TRIPOS>SUBSTRUCTURE
     1 BX1         1 TEMP              0 ****  ****    0 ROOT
