@<TRIPOS>MOLECULE
BX2
   54    57     1     0     0
SMALL
abcg2


@<TRIPOS>ATOM
      1 C1          -4.7620     2.7310    -2.0570 c3         1 BX2      -0.085100
      2 N1          -2.5410     2.7420     0.0290 nb         1 BX2      -0.675000
      3 O1           0.1240    -1.4610     2.3240 o          1 BX2      -0.503000
      4 C2          -3.2680     2.4980    -2.2630 c3         1 BX2      -0.125200
      5 N2          -1.5980    -2.8630     1.7420 n          1 BX2      -0.381300
      6 C3          -2.6130     1.9370    -1.0320 ca         1 BX2       0.353300
      7 N3          -2.1020    -2.1630    -0.3440 n2         1 BX2      -0.697900
      8 C4          -2.1410     0.6340    -1.0000 ca         1 BX2      -0.144500
      9 N4          -3.3410    -3.9250     0.5670 nv         1 BX2      -1.030200
     10 C5          -1.5710     0.1390     0.1690 ca         1 BX2      -0.029300
     11 N5           4.7910     1.7220     0.6220 nb         1 BX2      -0.172000
     12 C6          -1.5050     0.9840     1.2630 ca         1 BX2      -0.144500
     13 N6           5.2690     1.8430    -1.6870 nb         1 BX2      -0.172000
     14 C7          -2.0040     2.2830     1.1500 ca         1 BX2       0.353300
     15 C8          -1.9060     3.2400     2.3040 c3         1 BX2      -0.125200
     16 C9          -0.7090     4.1780     2.1570 c3         1 BX2      -0.085100
     17 C10         -1.0570    -1.2950     0.1490 c5         1 BX2       0.160800
     18 C11         -0.7280    -1.8340     1.5520 c          1 BX2       0.553000
     19 C12         -2.3700    -2.9980     0.5930 c2         1 BX2       0.675800
     20 C14          0.2110    -1.3720    -0.6910 ca         1 BX2      -0.074300
     21 C15          0.3610    -2.3380    -1.6770 ca         1 BX2      -0.077000
     22 C16          1.5360    -2.4000    -2.4160 ca         1 BX2      -0.118000
     23 C17          2.5670    -1.5080    -2.1760 ca         1 BX2      -0.089000
     24 C18          2.4290    -0.5310    -1.1880 cp         1 BX2      -0.037000
     25 C19          1.2460    -0.4730    -0.4570 ca         1 BX2      -0.069000
     26 C20          3.5110     0.4260    -0.9180 cp         1 BX2      -0.132000
     27 C21          3.8240     0.8530     0.3700 ca         1 BX2       0.112400
     28 C22          5.4700     2.1750    -0.4200 ca         1 BX2       0.113900
     29 C23          4.2950     0.9780    -1.9280 ca         1 BX2       0.112400
     30 H1          -5.2220     3.1300    -2.9610 hc         1 BX2       0.037367
     31 H1A         -5.2740     1.8010    -1.8050 hc         1 BX2       0.037367
     32 H1B         -4.9390     3.4410    -1.2490 hc         1 BX2       0.037367
     33 H2          -3.1100     1.8190    -3.1030 hc         1 BX2       0.051950
     34 H2A         -2.7840     3.4430    -2.5240 hc         1 BX2       0.051950
     35 H4          -2.2200     0.0080    -1.8790 ha         1 BX2       0.135500
     36 HN4         -3.7820    -4.0900    -0.3240 hn         1 BX2       0.491000
     37 HN4A        -3.2870    -4.7300     1.1690 hn         1 BX2       0.491000
     38 H6          -1.0740     0.6710     2.2030 ha         1 BX2       0.135500
     39 H8          -2.8250     3.8280     2.3570 hc         1 BX2       0.051950
     40 H8A         -1.8240     2.6850     3.2400 hc         1 BX2       0.051950
     41 H9          -0.7770     4.7600     1.2380 hc         1 BX2       0.037367
     42 H9A         -0.6600     4.8760     2.9940 hc         1 BX2       0.037367
     43 H9B          0.2280     3.6200     2.1330 hc         1 BX2       0.037367
     44 H13         -2.6920    -3.6470     3.3440 h1         1 BX2       0.052033
     45 H13A        -1.4160    -4.7140     2.7160 h1         1 BX2       0.052033
     46 H13B        -0.9940    -3.2900     3.6700 h1         1 BX2       0.052033
     47 H15         -0.4400    -3.0360    -1.8730 ha         1 BX2       0.127000
     48 H16          1.6470    -3.1560    -3.1820 ha         1 BX2       0.116000
     49 H17          3.4850    -1.5820    -2.7460 ha         1 BX2       0.116000
     50 H19          1.1210     0.3020     0.2880 ha         1 BX2       0.129000
     51 H21          3.2820     0.4650     1.2270 h4         1 BX2       0.030100
     52 H22          6.2650     2.8840    -0.2190 h5         1 BX2       0.050100
     53 H23          4.1170     0.7220    -2.9670 h4         1 BX2       0.030100
     54 C13         -1.6850    -3.6790     2.9290 c3         1 BX2       0.094300
@<TRIPOS>BOND
     1     1     4 1   
     2     1    30 1   
     3     1    31 1   
     4     1    32 1   
     5     2     6 ar  
     6     2    14 ar  
     7     3    18 2   
     8     4     6 1   
     9     4    33 1   
    10     4    34 1   
    11     5    18 1   
    12     5    19 1   
    13     5    54 1   
    14     6     8 ar  
    15     7    17 1   
    16     7    19 2   
    17     8    10 ar  
    18     8    35 1   
    19     9    19 1   
    20     9    36 1   
    21     9    37 1   
    22    10    12 ar  
    23    10    17 1   
    24    11    27 ar  
    25    11    28 ar  
    26    12    14 ar  
    27    12    38 1   
    28    13    28 ar  
    29    13    29 ar  
    30    14    15 1   
    31    15    16 1   
    32    15    39 1   
    33    15    40 1   
    34    16    41 1   
    35    16    42 1   
    36    16    43 1   
    37    17    18 1   
    38    17    20 1   
    39    20    21 ar  
    40    20    25 ar  
    41    21    22 ar  
    42    21    47 1   
    43    22    23 ar  
    44    22    48 1   
    45    23    24 ar  
    46    23    49 1   
    47    24    25 ar  
    48    24    26 1   
    49    25    50 1   
    50    26    27 ar  
    51    26    29 ar  
    52    27    51 1   
    53    28    52 1   
    54    29    53 1   
    55    44    54 1   
    56    45    54 1   
    57    46    54 1   
@<TRIPOS>SUBSTRUCTURE
     1 BX2         1 TEMP              0 ****  ****    0 ROOT
