@<TRIPOS>MOLECULE
BX2
   54    57     1     0     0
SMALL
No Charge or Current Charge


@<TRIPOS>ATOM
      1 C1          -3.6420     2.6560    -2.9900 c3         1 BX2      -0.085100
      2 N1          -2.5640     2.9260     0.2300 nb         1 BX2      -0.675000
      3 O1           0.4030    -1.1760     2.3620 o          1 BX2      -0.503000
      4 C2          -2.3770     3.0600    -2.2040 c3         1 BX2      -0.125200
      5 N2          -1.3840    -2.6330     2.0800 n          1 BX2      -0.381300
      6 C3          -2.2200     2.2820    -0.9060 ca         1 BX2       0.353300
      7 N3          -2.2630    -2.1320     0.0530 n2         1 BX2      -0.697900
      8 C4          -1.7480     0.9580    -0.9150 ca         1 BX2      -0.144500
      9 N4          -3.2100    -3.8400     1.2870 nv         1 BX2      -1.030200
     10 C5          -1.6020     0.2500     0.2960 ca         1 BX2      -0.029300
     11 N5           4.8610     1.7950    -0.2640 nb         1 BX2      -0.172000
     12 C6          -1.9840     0.9310     1.4720 ca         1 BX2      -0.144500
     13 N6           5.2000     1.5340    -2.6350 nb         1 BX2      -0.172000
     14 C7          -2.4500     2.2550     1.3960 ca         1 BX2       0.353300
     15 C8          -2.8500     3.0110     2.6560 c3         1 BX2      -0.125200
     16 C9          -1.6320     3.5040     3.4640 c3         1 BX2      -0.085100
     17 C10         -1.0920    -1.2070     0.2980 c5         1 BX2       0.160800
     18 C11         -0.5350    -1.6160     1.7060 c          1 BX2       0.553000
     19 C12         -2.3170    -2.8510     1.0960 c2         1 BX2       0.675800
     20 C14          0.0530    -1.3850    -0.7250 ca         1 BX2      -0.074300
     21 C15          0.0390    -2.3990    -1.7090 ca         1 BX2      -0.077000
     22 C16          1.0970    -2.5230    -2.6230 ca         1 BX2      -0.118000
     23 C17          2.1860    -1.6400    -2.5700 ca         1 BX2      -0.089000
     24 C18          2.2410    -0.6130    -1.5980 cp         1 BX2      -0.037000
     25 C19          1.1610    -0.5080    -0.6860 ca         1 BX2      -0.069000
     26 C20          3.4000     0.3330    -1.5360 cp         1 BX2      -0.132000
     27 C21          3.8180     0.9430    -0.3240 ca         1 BX2       0.112400
     28 C22          5.4990     2.0480    -1.4240 ca         1 BX2       0.113900
     29 C23          4.1560     0.6810    -2.6850 ca         1 BX2       0.112400
     30 H1          -3.7200     3.2380    -3.9160 hc         1 BX2       0.037367
     31 H1A         -3.6120     1.5920    -3.2550 hc         1 BX2       0.037367
     32 H1B         -4.5430     2.8380    -2.3920 hc         1 BX2       0.037367
     33 H2          -1.4980     2.8970    -2.8390 hc         1 BX2       0.051950
     34 H2A         -2.4130     4.1380    -2.0050 hc         1 BX2       0.051950
     35 H4          -1.5010     0.4890    -1.8630 ha         1 BX2       0.135500
     36 HN4         -3.7030    -4.0620     0.4310 hn         1 BX2       0.491000
     37 HN4A        -2.8350    -4.6470     1.7670 hn         1 BX2       0.491000
     38 H6          -1.9300     0.4520     2.4460 ha         1 BX2       0.135500
     39 H8          -3.4810     3.8720     2.4050 hc         1 BX2       0.051950
     40 H8A         -3.4610     2.3620     3.2960 hc         1 BX2       0.051950
     41 H9          -1.0170     4.1830     2.8600 hc         1 BX2       0.037367
     42 H9A         -1.9600     4.0440     4.3610 hc         1 BX2       0.037367
     43 H9B         -1.0070     2.6610     3.7800 hc         1 BX2       0.037367
     44 H13         -2.2700    -3.4020     3.8490 h1         1 BX2       0.052033
     45 H13A        -0.8660    -4.3300     3.2380 h1         1 BX2       0.052033
     46 H13B        -0.6210    -2.7680     4.0650 h1         1 BX2       0.052033
     47 H15         -0.7890    -3.1000    -1.7790 ha         1 BX2       0.127000
     48 H16          1.0740    -3.3100    -3.3740 ha         1 BX2       0.116000
     49 H17          2.9980    -1.7650    -3.2820 ha         1 BX2       0.116000
     50 H19          1.1760     0.2820     0.0600 ha         1 BX2       0.129000
     51 H21          3.3170     0.7340     0.6200 h4         1 BX2       0.030100
     52 H22          6.3410     2.7360    -1.3800 h5         1 BX2       0.050100
     53 H23          3.9140     0.2810    -3.6680 h4         1 BX2       0.030100
     54 C13         -1.2780    -3.3240     3.3850 c3         1 BX2       0.094300
@<TRIPOS>BOND
     1     1     4 1   
     2     1    30 1   
     3     1    31 1   
     4     1    32 1   
     5     2     6 ar  
     6     2    14 ar  
     7     3    18 2   
     8     4     6 1   
     9     4    33 1   
    10     4    34 1   
    11     5    18 1   
    12     5    19 1   
    13     5    54 1   
    14     6     8 ar  
    15     7    17 1   
    16     7    19 2   
    17     8    10 ar  
    18     8    35 1   
    19     9    19 1   
    20     9    36 1   
    21     9    37 1   
    22    10    12 ar  
    23    10    17 1   
    24    11    27 ar  
    25    11    28 ar  
    26    12    14 ar  
    27    12    38 1   
    28    13    28 ar  
    29    13    29 ar  
    30    14    15 1   
    31    15    16 1   
    32    15    39 1   
    33    15    40 1   
    34    16    41 1   
    35    16    42 1   
    36    16    43 1   
    37    17    18 1   
    38    17    20 1   
    39    20    21 ar  
    40    20    25 ar  
    41    21    22 ar  
    42    21    47 1   
    43    22    23 ar  
    44    22    48 1   
    45    23    24 ar  
    46    23    49 1   
    47    24    25 ar  
    48    24    26 1   
    49    25    50 1   
    50    26    27 ar  
    51    26    29 ar  
    52    27    51 1   
    53    28    52 1   
    54    29    53 1   
    55    44    54 1   
    56    45    54 1   
    57    46    54 1   
@<TRIPOS>SUBSTRUCTURE
     1 BX2         1 TEMP              0 ****  ****    0 ROOT
