@<TRIPOS>MOLECULE
BX3
   63    66     1     0     0
SMALL
bcc


@<TRIPOS>ATOM
      1 N1          -3.9240     0.4790    -7.4350 n2         1 BX3      -0.838100
      2 C2          -2.7830     0.5360    -8.0070 ce         1 BX3       0.669800
      3 N3          -2.5380     0.9930    -9.2700 nv         1 BX3      -0.967800
      4 C4          -1.5900     0.0150    -7.2820 ca         1 BX3      -0.173900
      5 C5          -0.4690    -0.4930    -7.9830 ca         1 BX3      -0.131000
      6 C6           0.6160    -0.9770    -7.3050 ca         1 BX3      -0.121000
      7 C7           0.6500    -0.9720    -5.8930 ca         1 BX3      -0.027000
      8 C8          -0.4690    -0.4650    -5.1840 ca         1 BX3      -0.046000
      9 C9          -1.5790     0.0170    -5.9100 ca         1 BX3      -0.054000
     10 C10          1.7540    -1.4600    -5.1570 ca         1 BX3      -0.143000
     11 C11          1.7450    -1.4400    -3.7900 ca         1 BX3      -0.071000
     12 C12         -0.4430    -0.4600    -3.7690 ca         1 BX3      -0.128000
     13 C13          0.6350    -0.9350    -3.0670 ca         1 BX3      -0.035300
     14 C14          0.6550    -0.8990    -1.5650 c3         1 BX3      -0.009100
     15 C15          1.2460     0.4090    -1.0190 c3         1 BX3      -0.166400
     16 C16          1.1760     0.4840     0.4850 ca         1 BX3      -0.013300
     17 C17          0.7380     1.6470     1.1120 ca         1 BX3      -0.114000
     18 C18          0.7110     1.7630     2.4970 ca         1 BX3      -0.157000
     19 C19          1.1350     0.7050     3.2880 ca         1 BX3       0.061100
     20 C20          1.5700    -0.4700     2.6790 ca         1 BX3      -0.157000
     21 C21          1.5920    -0.5720     1.2980 ca         1 BX3      -0.114000
     22 C22          2.7230     0.6000    -1.4580 c          1 BX3       0.935600
     23 O23          3.4990    -0.3400    -1.1940 o          1 BX3      -0.823300
     24 O24          3.0130     1.6760    -2.0120 o          1 BX3      -0.823300
     25 O25          1.1620     0.8400     4.6440 os         1 BX3      -0.342900
     26 C26          0.2300     0.0490     5.3800 c6         1 BX3       0.157100
     27 C27         -1.1120     0.7500     5.4990 c6         1 BX3      -0.100900
     28 N28         -1.4860    -0.3200     7.6810 nh         1 BX3      -0.800600
     29 C29         -0.2000    -0.9950     7.5990 c6         1 BX3       0.216800
     30 C30          0.7960    -0.2050     6.7620 c6         1 BX3      -0.100900
     31 C31         -2.2710    -0.3920     8.8060 c2         1 BX3       0.638200
     32 N32         -3.5230    -0.1320     8.8830 n2         1 BX3      -0.859100
     33 C33         -1.5830    -0.7790    10.0880 c3         1 BX3      -0.137400
     34 C34         -2.0690    -0.0450     6.3790 c6         1 BX3       0.216800
     35 HN1         -4.6450     0.9010    -8.0140 hn         1 BX3       0.356400
     36 HN31        -3.2860     1.4790    -9.7400 hn         1 BX3       0.400300
     37 HN32        -1.6260     1.3670    -9.4750 hn         1 BX3       0.400300
     38 H5          -0.4730    -0.5260    -9.0650 ha         1 BX3       0.121000
     39 H6           1.4630    -1.3760    -7.8510 ha         1 BX3       0.123000
     40 H9          -2.4340     0.4050    -5.3700 ha         1 BX3       0.146000
     41 H10          2.6100    -1.8550    -5.6910 ha         1 BX3       0.124000
     42 H11          2.6010    -1.8100    -3.2420 ha         1 BX3       0.165000
     43 H12         -1.3060    -0.0730    -3.2370 ha         1 BX3       0.126000
     44 H141         1.2230    -1.7510    -1.1860 hc         1 BX3       0.036200
     45 H142        -0.3660    -1.0090    -1.1900 hc         1 BX3       0.036200
     46 H15          0.6560     1.2370    -1.4240 hc         1 BX3       0.048700
     47 H17          0.4040     2.4830     0.5100 ha         1 BX3       0.138500
     48 H18          0.3660     2.6790     2.9600 ha         1 BX3       0.120000
     49 H20          1.9130    -1.3000     3.2850 ha         1 BX3       0.120000
     50 H21          1.9510    -1.4900     0.8530 ha         1 BX3       0.138500
     51 H26          0.0870    -0.9170     4.8750 h1         1 BX3       0.040700
     52 H271        -0.9610     1.7440     5.9300 hc         1 BX3       0.060950
     53 H272        -1.5720     0.8830     4.5170 hc         1 BX3       0.060950
     54 H291         0.2160    -1.1410     8.5910 h1         1 BX3       0.036950
     55 H292        -0.3310    -1.9940     7.1630 h1         1 BX3       0.036950
     56 H301         1.0160     0.7470     7.2550 hc         1 BX3       0.060950
     57 H302         1.7280    -0.7700     6.6970 hc         1 BX3       0.060950
     58 HN3         -3.9410     0.0920     7.9870 hn         1 BX3       0.373400
     59 H331        -2.2880    -0.6630    10.9070 hc         1 BX3       0.052033
     60 H332        -1.2510    -1.8180    10.0730 hc         1 BX3       0.052033
     61 H333        -0.7090    -0.1590    10.2940 hc         1 BX3       0.052033
     62 H341        -2.3470    -0.9830     5.8800 h1         1 BX3       0.036950
     63 H342        -2.9810     0.5380     6.4890 h1         1 BX3       0.036950
@<TRIPOS>BOND
     1     1     2 2   
     2     1    35 1   
     3     2     3 1   
     4     2     4 1   
     5     3    36 1   
     6     3    37 1   
     7     4     5 ar  
     8     4     9 ar  
     9     5     6 ar  
    10     5    38 1   
    11     6     7 ar  
    12     6    39 1   
    13     7     8 ar  
    14     7    10 ar  
    15     8     9 ar  
    16     8    12 ar  
    17     9    40 1   
    18    10    11 ar  
    19    10    41 1   
    20    11    13 ar  
    21    11    42 1   
    22    12    13 ar  
    23    12    43 1   
    24    13    14 1   
    25    14    15 1   
    26    14    44 1   
    27    14    45 1   
    28    15    16 1   
    29    15    22 1   
    30    15    46 1   
    31    16    17 ar  
    32    16    21 ar  
    33    17    18 ar  
    34    17    47 1   
    35    18    19 ar  
    36    18    48 1   
    37    19    20 ar  
    38    19    25 1   
    39    20    21 ar  
    40    20    49 1   
    41    21    50 1   
    42    22    23 1   
    43    22    24 1   
    44    25    26 1   
    45    26    27 1   
    46    26    30 1   
    47    26    51 1   
    48    27    34 1   
    49    27    52 1   
    50    27    53 1   
    51    28    29 1   
    52    28    31 1   
    53    28    34 1   
    54    29    30 1   
    55    29    54 1   
    56    29    55 1   
    57    30    56 1   
    58    30    57 1   
    59    31    32 2   
    60    31    33 1   
    61    32    58 1   
    62    33    59 1   
    63    33    60 1   
    64    33    61 1   
    65    34    62 1   
    66    34    63 1   
@<TRIPOS>SUBSTRUCTURE
     1 BX3         1 TEMP              0 ****  ****    0 ROOT
