@<TRIPOS>MOLECULE
BX3
   63    66     1     0     0
SMALL
No Charge or Current Charge


@<TRIPOS>ATOM
      1 N1          -3.2850     1.9060    -7.7110 n2         1 BX3      -0.838100
      2 C2          -2.3180     1.2700    -8.2310 ce         1 BX3       0.669800
      3 N3          -2.0560     1.4690    -9.5390 nv         1 BX3      -1.078200
      4 C4          -1.3840     0.3960    -7.4460 ca         1 BX3      -0.173900
      5 C5          -0.5450    -0.5530    -8.0810 ca         1 BX3      -0.113000
      6 C6           0.3040    -1.3810    -7.3260 ca         1 BX3      -0.103000
      7 C7           0.3230    -1.2880    -5.9250 ca         1 BX3      -0.027000
      8 C8          -0.5190    -0.3620    -5.2750 ca         1 BX3      -0.046000
      9 C9          -1.3690     0.4660    -6.0330 ca         1 BX3      -0.036000
     10 C10          1.1720    -2.1150    -5.1680 ca         1 BX3      -0.125000
     11 C11          1.1820    -2.0200    -3.7650 ca         1 BX3      -0.053000
     12 C12         -0.5060    -0.2710    -3.8700 ca         1 BX3      -0.110000
     13 C13          0.3430    -1.0980    -3.1090 ca         1 BX3      -0.035300
     14 C14          0.3520    -0.9940    -1.5890 c3         1 BX3      -0.009100
     15 C15          1.2370     0.1740    -1.0770 c3         1 BX3      -0.166400
     16 C16          1.0310     0.4730     0.4130 ca         1 BX3      -0.013300
     17 C17          0.8380     1.8020     0.8380 ca         1 BX3      -0.096000
     18 C18          0.6440     2.0960     2.1990 ca         1 BX3      -0.139000
     19 C19          0.6370     1.0700     3.1580 ca         1 BX3       0.061100
     20 C20          0.8450    -0.2630     2.7410 ca         1 BX3      -0.139000
     21 C21          1.0390    -0.5550     1.3790 ca         1 BX3      -0.096000
     22 C22          2.7340    -0.0550    -1.3880 c          1 BX3       0.725000
     23 O23          3.2940    -1.0270    -0.9010 o          1 BX3      -0.718000
     24 O24          3.3080     0.7700    -2.0840 o          1 BX3      -0.718000
     25 O25          0.4470     1.4340     4.4790 os         1 BX3      -0.366100
     26 C26          0.1940     0.4620     5.5190 c6         1 BX3       0.180300
     27 C27         -1.2190    -0.1440     5.3890 c6         1 BX3      -0.100900
     28 N28         -1.2960    -0.5410     7.8910 nh         1 BX3      -0.800600
     29 C29          0.0240     0.1490     8.0370 c6         1 BX3       0.216800
     30 C30          0.3070     1.1440     6.8920 c6         1 BX3      -0.100900
     31 C31         -1.9080    -1.1040     9.0030 c2         1 BX3       0.638200
     32 N32         -3.1240    -1.4520     8.8720 n2         1 BX3      -0.859100
     33 C33         -1.2410    -1.0710    10.3610 c3         1 BX3      -0.137400
     34 C34         -1.5000    -1.1420     6.5320 c6         1 BX3       0.216800
     35 HN1         -3.8720     2.2650    -8.4720 hn         1 BX3       0.356400
     36 HN31        -2.3790     2.3490    -9.9220 hn         1 BX3       0.455500
     37 HN32        -1.1320     1.1800    -9.8400 hn         1 BX3       0.455500
     38 H5          -0.5490    -0.6660    -9.1630 ha         1 BX3       0.103000
     39 H6           0.9420    -2.1000    -7.8350 ha         1 BX3       0.105000
     40 H9          -2.0140     1.1740    -5.5170 ha         1 BX3       0.128000
     41 H10          1.8240    -2.8310    -5.6620 ha         1 BX3       0.106000
     42 H11          1.8440    -2.6620    -3.1870 ha         1 BX3       0.147000
     43 H12         -1.1540     0.4430    -3.3670 ha         1 BX3       0.108000
     44 H141         0.6860    -1.9410    -1.1490 hc         1 BX3       0.036200
     45 H142        -0.6740    -0.8400    -1.2310 hc         1 BX3       0.036200
     46 H15          0.9300     1.0670    -1.6360 hc         1 BX3       0.048700
     47 H17          0.8370     2.6130     0.1130 ha         1 BX3       0.120500
     48 H18          0.4950     3.1260     2.5110 ha         1 BX3       0.102000
     49 H20          0.8670    -1.0850     3.4500 ha         1 BX3       0.102000
     50 H21          1.2050    -1.5870     1.0800 ha         1 BX3       0.120500
     51 H26          0.9560    -0.3290     5.4690 h1         1 BX3       0.040700
     52 H271        -1.9710     0.6570     5.4110 hc         1 BX3       0.060950
     53 H272        -1.3370    -0.6560     4.4260 hc         1 BX3       0.060950
     54 H291         0.0540     0.7270     8.9710 h1         1 BX3       0.036950
     55 H292         0.8320    -0.5970     8.0910 h1         1 BX3       0.036950
     56 H301        -0.4000     1.9820     6.9530 hc         1 BX3       0.060950
     57 H302         1.3120     1.5690     7.0160 hc         1 BX3       0.060950
     58 HN3         -3.3670    -1.2580     7.8960 hn         1 BX3       0.373400
     59 H331        -1.7850    -1.6900    11.0840 hc         1 BX3       0.052033
     60 H332        -0.2170    -1.4570    10.3110 hc         1 BX3       0.052033
     61 H333        -1.2090    -0.0510    10.7600 hc         1 BX3       0.052033
     62 H341        -0.8500    -2.0230     6.4180 h1         1 BX3       0.036950
     63 H342        -2.5330    -1.4950     6.4010 h1         1 BX3       0.036950
@<TRIPOS>BOND
     1     1     2 2   
     2     1    35 1   
     3     2     3 1   
     4     2     4 1   
     5     3    36 1   
     6     3    37 1   
     7     4     5 ar  
     8     4     9 ar  
     9     5     6 ar  
    10     5    38 1   
    11     6     7 ar  
    12     6    39 1   
    13     7     8 ar  
    14     7    10 ar  
    15     8     9 ar  
    16     8    12 ar  
    17     9    40 1   
    18    10    11 ar  
    19    10    41 1   
    20    11    13 ar  
    21    11    42 1   
    22    12    13 ar  
    23    12    43 1   
    24    13    14 1   
    25    14    15 1   
    26    14    44 1   
    27    14    45 1   
    28    15    16 1   
    29    15    22 1   
    30    15    46 1   
    31    16    17 ar  
    32    16    21 ar  
    33    17    18 ar  
    34    17    47 1   
    35    18    19 ar  
    36    18    48 1   
    37    19    20 ar  
    38    19    25 1   
    39    20    21 ar  
    40    20    49 1   
    41    21    50 1   
    42    22    23 1   
    43    22    24 1   
    44    25    26 1   
    45    26    27 1   
    46    26    30 1   
    47    26    51 1   
    48    27    34 1   
    49    27    52 1   
    50    27    53 1   
    51    28    29 1   
    52    28    31 1   
    53    28    34 1   
    54    29    30 1   
    55    29    54 1   
    56    29    55 1   
    57    30    56 1   
    58    30    57 1   
    59    31    32 2   
    60    31    33 1   
    61    32    58 1   
    62    33    59 1   
    63    33    60 1   
    64    33    61 1   
    65    34    62 1   
    66    34    63 1   
@<TRIPOS>SUBSTRUCTURE
     1 BX3         1 TEMP              0 ****  ****    0 ROOT
