@<TRIPOS>MOLECULE
BX4
   29    30     1     0     0
SMALL
abcg2


@<TRIPOS>ATOM
      1 S1           3.7410    -0.2490     0.1580 sy         1 BX4       1.141600
      2 N1           4.3420     0.1840    -1.3090 n8         1 BX4      -0.997100
      3 O2           4.0590    -1.6570     0.3310 o          1 BX4      -0.530500
      4 O3           4.2350     0.7320     1.1100 o          1 BX4      -0.530500
      5 C4           1.9770    -0.0980     0.0830 ca         1 BX4      -0.322500
      6 C5           1.2160    -1.1770    -0.3450 ca         1 BX4      -0.017000
      7 C6          -0.1600    -1.0480    -0.4200 ca         1 BX4      -0.123000
      8 C7          -0.7920     0.1460    -0.0710 cp         1 BX4       0.027000
      9 C8          -0.0030     1.2150     0.3580 ca         1 BX4      -0.123000
     10 C9           1.3740     1.1010     0.4380 ca         1 BX4      -0.017000
     11 C10         -2.2610     0.2780    -0.1460 cp         1 BX4      -0.015000
     12 C11         -2.8420     1.4760    -0.5610 ca         1 BX4      -0.140000
     13 C12         -4.2250     1.5760    -0.6200 ca         1 BX4      -0.071000
     14 C13         -5.0360     0.5100    -0.2700 ca         1 BX4      -0.168000
     15 C14         -4.4690    -0.7010     0.1480 ca         1 BX4       0.294000
     16 C15         -3.0750    -0.7970     0.2040 ca         1 BX4      -0.164000
     17 N2          -5.2610    -1.7840     0.4540 nv         1 BX4      -1.075000
     18 H1           4.0530    -0.4260    -2.0660 hn         1 BX4       0.476000
     19 H2           4.1890     1.1580    -1.5430 hn         1 BX4       0.476000
     20 H3           1.6800    -2.1140    -0.6230 ha         1 BX4       0.135500
     21 H4          -0.7440    -1.8890    -0.7710 ha         1 BX4       0.123000
     22 H5          -0.4690     2.1440     0.6590 ha         1 BX4       0.123000
     23 H6           1.9590     1.9400     0.7890 ha         1 BX4       0.135500
     24 H7          -2.2260     2.3150    -0.8580 ha         1 BX4       0.116000
     25 H8          -4.6810     2.5010    -0.9490 ha         1 BX4       0.114000
     26 H9          -6.1140     0.6100    -0.3190 ha         1 BX4       0.115000
     27 H10         -2.6270    -1.7200     0.5530 ha         1 BX4       0.115000
     28 H11         -6.2030    -1.5730     0.7420 hn         1 BX4       0.451500
     29 H12         -4.8390    -2.4880     1.0380 hn         1 BX4       0.451500
@<TRIPOS>BOND
     1     1     2 1   
     2     1     3 2   
     3     1     4 2   
     4     1     5 1   
     5     2    18 1   
     6     2    19 1   
     7     5     6 ar  
     8     5    10 ar  
     9     6     7 ar  
    10     6    20 1   
    11     7     8 ar  
    12     7    21 1   
    13     8     9 ar  
    14     8    11 1   
    15     9    10 ar  
    16     9    22 1   
    17    10    23 1   
    18    11    12 ar  
    19    11    16 ar  
    20    12    13 ar  
    21    12    24 1   
    22    13    14 ar  
    23    13    25 1   
    24    14    15 ar  
    25    14    26 1   
    26    15    16 ar  
    27    15    17 1   
    28    16    27 1   
    29    17    28 1   
    30    17    29 1   
@<TRIPOS>SUBSTRUCTURE
     1 BX4         1 TEMP              0 ****  ****    0 ROOT
