@<TRIPOS>MOLECULE
BX4
   29    30     1     0     0
SMALL
No Charge or Current Charge


@<TRIPOS>ATOM
      1 S1           3.8360    -0.2710     0.1360 sy         1 BX4       1.141600
      2 N1           4.2490     0.0500    -1.4120 n8         1 BX4      -0.997100
      3 O2           4.2230    -1.6640     0.3580 o          1 BX4      -0.530500
      4 O3           4.4020     0.8440     0.8900 o          1 BX4      -0.530500
      5 C4           2.0490    -0.1150     0.0580 ca         1 BX4      -0.322500
      6 C5           1.2590    -1.2260    -0.3000 ca         1 BX4      -0.017000
      7 C6          -0.1390    -1.1040    -0.3620 ca         1 BX4      -0.123000
      8 C7          -0.7860     0.1240    -0.0710 cp         1 BX4       0.027000
      9 C8           0.0280     1.2280     0.2850 ca         1 BX4      -0.123000
     10 C9           1.4270     1.1150     0.3510 ca         1 BX4      -0.017000
     11 C10         -2.2780     0.2490    -0.1390 cp         1 BX4      -0.015000
     12 C11         -2.8940     1.4500    -0.5750 ca         1 BX4      -0.140000
     13 C12         -4.2920     1.5680    -0.6400 ca         1 BX4      -0.071000
     14 C13         -5.1040     0.4850    -0.2670 ca         1 BX4      -0.168000
     15 C14         -4.5200    -0.7120     0.1680 ca         1 BX4       0.294000
     16 C15         -3.1240    -0.8280     0.2300 ca         1 BX4      -0.164000
     17 N2          -5.3140    -1.7650     0.5340 nv         1 BX4      -1.075000
     18 H1           3.4100     0.5060    -1.7610 hn         1 BX4       0.476000
     19 H2           4.9050     0.8170    -1.2790 hn         1 BX4       0.476000
     20 H3           1.7220    -2.1840    -0.5350 ha         1 BX4       0.135500
     21 H4          -0.7270    -1.9700    -0.6530 ha         1 BX4       0.123000
     22 H5          -0.4310     2.1820     0.5300 ha         1 BX4       0.123000
     23 H6           2.0180     1.9860     0.6350 ha         1 BX4       0.135500
     24 H7          -2.2820     2.2960    -0.8800 ha         1 BX4       0.116000
     25 H8          -4.7450     2.4970    -0.9800 ha         1 BX4       0.114000
     26 H9          -6.1850     0.5800    -0.3190 ha         1 BX4       0.115000
     27 H10         -2.6870    -1.7580     0.5810 ha         1 BX4       0.115000
     28 H11         -6.3200    -1.6340     0.6260 hn         1 BX4       0.451500
     29 H12         -4.9020    -2.5810     0.9850 hn         1 BX4       0.451500
@<TRIPOS>BOND
     1     1     2 1   
     2     1     3 2   
     3     1     4 2   
     4     1     5 1   
     5     2    18 1   
     6     2    19 1   
     7     5     6 ar  
     8     5    10 ar  
     9     6     7 ar  
    10     6    20 1   
    11     7     8 ar  
    12     7    21 1   
    13     8     9 ar  
    14     8    11 1   
    15     9    10 ar  
    16     9    22 1   
    17    10    23 1   
    18    11    12 ar  
    19    11    16 ar  
    20    12    13 ar  
    21    12    24 1   
    22    13    14 ar  
    23    13    25 1   
    24    14    15 ar  
    25    14    26 1   
    26    15    16 ar  
    27    15    17 1   
    28    16    27 1   
    29    17    28 1   
    30    17    29 1   
@<TRIPOS>SUBSTRUCTURE
     1 BX4         1 TEMP              0 ****  ****    0 ROOT
