@<TRIPOS>MOLECULE
BX5
   23    23     1     0     0
SMALL
abcg2


@<TRIPOS>ATOM
      1 NAD          3.1180     0.0960    -1.0040 nc         1 BX5      -0.507800
      2 NAB          4.1000    -0.4540    -0.3390 na         1 BX5       0.120600
      3 NAA          3.9320    -0.4760     0.9470 nc         1 BX5      -0.151800
      4 NAC          2.7850     0.0810     1.1670 nd         1 BX5      -0.386000
      5 CAE          2.2900     0.4310    -0.0340 cd         1 BX5       0.480300
      6 CAF          0.9690     1.0780    -0.2340 c3         1 BX5      -0.087700
      7 CAG         -0.1810     0.0770    -0.1110 c3         1 BX5      -0.068400
      8 CAH         -1.5220     0.7730    -0.2890 c3         1 BX5      -0.140400
      9 CAI         -2.6860    -0.1670    -0.1600 c          1 BX5       0.610100
     10 OAJ         -2.6470    -1.3650    -0.3490 o          1 BX5      -0.526100
     11 NAK         -3.8520     0.4380     0.2090 ns         1 BX5      -0.441300
     12 NAL         -5.0140    -0.3260     0.2030 nz         1 BX5      -0.759200
     13 HAB          4.9290    -0.8270    -0.7820 hn         1 BX5       0.417000
     14 HAF          0.8490     1.8710     0.5070 hc         1 BX5       0.069200
     15 HAG          0.9510     1.5500    -1.2180 hc         1 BX5       0.069200
     16 HAI         -0.0620    -0.7080    -0.8590 hc         1 BX5       0.076200
     17 HAH         -0.1410    -0.4050     0.8690 hc         1 BX5       0.076200
     18 HAJ         -1.6290     1.5920     0.4270 hc         1 BX5       0.084700
     19 HAK         -1.5840     1.2290    -1.2840 hc         1 BX5       0.084700
     20 HAO         -3.9920     1.4370     0.2340 hn         1 BX5       0.385500
     21 HAL         -5.6470    -0.0670    -0.5580 hn         1 BX5       0.531667
     22 HAM         -4.7490    -1.3110     0.0740 hn         1 BX5       0.531667
     23 HAN         -5.5180    -0.2470     1.0880 hn         1 BX5       0.531667
@<TRIPOS>BOND
     1     1     2 1   
     2     1     5 2   
     3     2     3 1   
     4     2    13 1   
     5     3     4 2   
     6     4     5 1   
     7     5     6 1   
     8     6     7 1   
     9     6    14 1   
    10     6    15 1   
    11     7     8 1   
    12     7    16 1   
    13     7    17 1   
    14     8     9 1   
    15     8    18 1   
    16     8    19 1   
    17     9    10 2   
    18     9    11 1   
    19    11    12 1   
    20    11    20 1   
    21    12    21 1   
    22    12    22 1   
    23    12    23 1   
@<TRIPOS>SUBSTRUCTURE
     1 BX5         1 TEMP              0 ****  ****    0 ROOT
