@<TRIPOS>MOLECULE
BX5
   23    23     1     0     0
SMALL
No Charge or Current Charge


@<TRIPOS>ATOM
      1 NAD          3.0310    -0.2980    -0.6720 nc         1 BX5      -0.507800
      2 NAB          4.0010    -0.6140     0.2400 na         1 BX5       0.120600
      3 NAA          3.8080    -0.0450     1.4650 nc         1 BX5      -0.151800
      4 NAC          2.7090     0.6440     1.3480 nd         1 BX5      -0.386000
      5 CAE          2.2590     0.4820     0.0570 cd         1 BX5       0.480300
      6 CAF          1.0020     1.1160    -0.4770 c3         1 BX5      -0.087700
      7 CAG         -0.2490     0.2240    -0.2930 c3         1 BX5      -0.068400
      8 CAH         -1.5450     0.8730    -0.8400 c3         1 BX5      -0.140400
      9 CAI         -2.7610    -0.0380    -0.6500 c          1 BX5       0.610100
     10 OAJ         -2.9480    -1.0400    -1.3250 o          1 BX5      -0.526100
     11 NAK         -3.6720     0.3600     0.3280 ns         1 BX5      -0.441300
     12 NAL         -4.9030    -0.5020     0.5420 nz         1 BX5      -0.759200
     13 HAB          4.7980    -1.2180     0.0380 hn         1 BX5       0.417000
     14 HAF          0.8390     2.0770     0.0260 hc         1 BX5       0.069200
     15 HAG          1.1310     1.3430    -1.5420 hc         1 BX5       0.069200
     16 HAI         -0.0810    -0.7370    -0.7990 hc         1 BX5       0.076200
     17 HAH         -0.3770    -0.0000     0.7750 hc         1 BX5       0.076200
     18 HAJ         -1.7090     1.8250    -0.3220 hc         1 BX5       0.084700
     19 HAK         -1.4180     1.0550    -1.9140 hc         1 BX5       0.084700
     20 HAO         -3.4820     1.2110     0.8680 hn         1 BX5       0.385500
     21 HAL         -5.8240    -0.0900     0.3010 hn         1 BX5       0.531667
     22 HAM         -4.9240    -1.3200    -0.0960 hn         1 BX5       0.531667
     23 HAN         -4.9840    -1.0060     1.4450 hn         1 BX5       0.531667
@<TRIPOS>BOND
     1     1     2 1   
     2     1     5 2   
     3     2     3 1   
     4     2    13 1   
     5     3     4 2   
     6     4     5 1   
     7     5     6 1   
     8     6     7 1   
     9     6    14 1   
    10     6    15 1   
    11     7     8 1   
    12     7    16 1   
    13     7    17 1   
    14     8     9 1   
    15     8    18 1   
    16     8    19 1   
    17     9    10 2   
    18     9    11 1   
    19    11    12 1   
    20    11    20 1   
    21    12    21 1   
    22    12    22 1   
    23    12    23 1   
@<TRIPOS>SUBSTRUCTURE
     1 BX5         1 TEMP              0 ****  ****    0 ROOT
