@<TRIPOS>MOLECULE
BX7
   60    63     1     0     0
SMALL
bcc


@<TRIPOS>ATOM
      1 I01          2.4780     4.3080    -0.8770 i          1 BX7      -0.164900
      2 S02          7.7820    -4.1410    -1.2370 ss         1 BX7      -0.084800
      3 O03         -5.4980    -2.7310     0.7940 o          1 BX7      -0.631100
      4 O04          5.8330    -2.3440     1.6720 o          1 BX7      -0.591100
      5 N05         -7.6490    -3.2550     0.3660 n          1 BX7      -0.507800
      6 N08         -2.4590     0.7420    -0.3420 nu         1 BX7      -0.731300
      7 N09          5.1210    -2.8200    -0.4190 ns         1 BX7      -0.570900
      8 N10         -0.2150     0.9460    -0.3930 nb         1 BX7      -0.868000
      9 N11         -1.5720     2.8740    -0.6460 nb         1 BX7      -0.796000
     10 C12         -8.9710    -5.0820     0.9690 c5         1 BX7      -0.094400
     11 C13         -9.6100    -4.3840    -0.2270 c5         1 BX7      -0.094400
     12 C14         -8.9660    -3.0020    -0.2080 c5         1 BX7       0.109000
     13 C15         -7.5280    -4.5950     0.9270 c5         1 BX7       0.109000
     14 C16         -6.6040    -2.4010     0.3820 c          1 BX7       0.804100
     15 C17         -6.0190    -0.0590    -0.2320 ca         1 BX7       0.120600
     16 C18         -4.6330    -0.1590    -0.2070 ca         1 BX7      -0.217000
     17 C19          3.6150    -0.8560    -0.4220 c3         1 BX7      -0.128400
     18 C20         -6.6080     1.1940    -0.4440 ca         1 BX7      -0.224000
     19 C22         -3.8300     0.9760    -0.3850 ca         1 BX7       0.206600
     20 C23          3.7650    -2.3600    -0.2190 c3         1 BX7       0.108000
     21 C24         -5.8060     2.3030    -0.6210 ca         1 BX7      -0.075000
     22 C25         -4.4200     2.2220    -0.5930 ca         1 BX7      -0.183000
     23 C26          0.8980     1.6610    -0.5050 ca         1 BX7       0.786200
     24 C27         -1.3890     1.5730    -0.4700 ca         1 BX7       0.966900
     25 C28          0.8020     3.0670    -0.6920 ca         1 BX7      -0.316700
     26 C29          6.0600    -2.7540     0.5420 c          1 BX7       0.709700
     27 C30         -0.4600     3.6000    -0.7530 ca         1 BX7       0.535200
     28 C31          7.4160    -3.2190     0.1750 cc         1 BX7      -0.150700
     29 C32          8.5450    -2.9860     0.9090 cd         1 BX7      -0.079000
     30 C33          9.7080    -3.5410     0.3230 cd         1 BX7      -0.162000
     31 C34          9.4430    -4.1950    -0.8440 cc         1 BX7      -0.095100
     32 H1          -7.8530    -0.9130    -0.2580 hn         1 BX7       0.314500
     33 H2           2.9180     1.5430    -0.4700 hn         1 BX7       0.452800
     34 H3          -2.1930    -0.2200    -0.1960 hn         1 BX7       0.457800
     35 H4           5.3930    -3.0180    -1.3690 hn         1 BX7       0.313500
     36 H5          -9.4510    -4.7600     1.8950 hc         1 BX7       0.055700
     37 H6          -9.0420    -6.1680     0.9180 hc         1 BX7       0.055700
     38 H7          -9.3480    -4.9020    -1.1510 hc         1 BX7       0.055700
     39 H8         -10.6960    -4.3310    -0.1690 hc         1 BX7       0.055700
     40 H9          -9.5430    -2.3080     0.4130 h1         1 BX7       0.049950
     41 H10         -8.8920    -2.5750    -1.2110 h1         1 BX7       0.049950
     42 H11         -6.9120    -5.2330     0.2860 h1         1 BX7       0.049950
     43 H12         -7.0650    -4.5700     1.9140 h1         1 BX7       0.049950
     44 H13         -4.1600    -1.1150    -0.0470 ha         1 BX7       0.164000
     45 H14          3.9590    -0.5900    -1.4260 hc         1 BX7       0.056200
     46 H15          4.2550    -0.3290     0.2910 hc         1 BX7       0.056200
     47 H16         -7.6870     1.2900    -0.4650 ha         1 BX7       0.126000
     48 H17          1.8150    -0.6890     0.7570 h1         1 BX7       0.058200
     49 H18          1.5300    -0.9350    -0.9580 h1         1 BX7       0.058200
     50 H19          3.1320    -2.8980    -0.9260 h1         1 BX7       0.060700
     51 H20          3.4370    -2.6430     0.7810 h1         1 BX7       0.060700
     52 H21         -6.2700     3.2680    -0.7850 ha         1 BX7       0.130000
     53 H22         -3.8160     3.1030    -0.7310 ha         1 BX7       0.172000
     54 H23         -0.6000     4.6660    -0.8950 h4         1 BX7       0.029100
     55 H24          8.5420    -2.4280     1.8340 ha         1 BX7       0.172000
     56 H25         10.6980    -3.4610     0.7480 ha         1 BX7       0.159000
     57 H26         10.1350    -4.7130    -1.4890 h4         1 BX7       0.171000
     58 N07          2.0630     1.0120    -0.4450 nu         1 BX7      -0.867900
     59 N06         -6.8850    -1.1410    -0.0940 ns         1 BX7      -0.489100
     60 C21          2.1720    -0.4180    -0.2420 c3         1 BX7       0.236800
@<TRIPOS>BOND
     1     1    25 1   
     2     2    28 1   
     3     2    31 1   
     4     3    14 2   
     5     4    26 2   
     6     5    12 1   
     7     5    13 1   
     8     5    14 1   
     9     6    19 1   
    10     6    24 1   
    11     6    34 1   
    12     7    20 1   
    13     7    26 1   
    14     7    35 1   
    15     8    23 ar  
    16     8    24 ar  
    17     9    24 ar  
    18     9    27 ar  
    19    10    11 1   
    20    10    13 1   
    21    10    36 1   
    22    10    37 1   
    23    11    12 1   
    24    11    38 1   
    25    11    39 1   
    26    12    40 1   
    27    12    41 1   
    28    13    42 1   
    29    13    43 1   
    30    14    59 1   
    31    15    16 ar  
    32    15    18 ar  
    33    15    59 1   
    34    16    19 ar  
    35    16    44 1   
    36    17    20 1   
    37    17    45 1   
    38    17    46 1   
    39    17    60 1   
    40    18    21 ar  
    41    18    47 1   
    42    19    22 ar  
    43    20    50 1   
    44    20    51 1   
    45    21    22 ar  
    46    21    52 1   
    47    22    53 1   
    48    23    25 ar  
    49    23    58 1   
    50    25    27 ar  
    51    26    28 1   
    52    27    54 1   
    53    28    29 2   
    54    29    30 1   
    55    29    55 1   
    56    30    31 2   
    57    30    56 1   
    58    31    57 1   
    59    32    59 1   
    60    33    58 1   
    61    48    60 1   
    62    49    60 1   
    63    58    60 1   
@<TRIPOS>SUBSTRUCTURE
     1 BX7         1 TEMP              0 ****  ****    0 ROOT
