@<TRIPOS>MOLECULE
BX7
   60    63     1     0     0
SMALL
No Charge or Current Charge


@<TRIPOS>ATOM
      1 I01          2.5510     4.0720     0.3170 i          1 BX7      -0.302000
      2 S02          8.6080    -3.0270    -1.4560 ss         1 BX7       0.205000
      3 O03         -5.8110    -3.0620     0.4960 o          1 BX7      -0.631100
      4 O04          5.9560    -2.6820     1.5230 o          1 BX7      -0.591100
      5 N05         -8.0950    -3.2300     0.4950 n          1 BX7      -0.440800
      6 N08         -2.4720     0.4840    -0.6280 nu         1 BX7      -0.924900
      7 N09          5.6840    -2.6140    -0.7380 ns         1 BX7      -0.503900
      8 N10         -0.2030     0.6830    -0.4660 nb         1 BX7      -0.342000
      9 N11         -1.5950     2.6200    -0.1940 nb         1 BX7      -0.270000
     10 C12         -9.6160    -4.7430     1.4450 c5         1 BX7      -0.094400
     11 C13        -10.3260    -3.9470     0.3230 c5         1 BX7      -0.094400
     12 C14         -9.4430    -2.6760     0.2290 c5         1 BX7       0.109000
     13 C15         -8.1280    -4.6040     1.0360 c5         1 BX7       0.109000
     14 C16         -6.8920    -2.5340     0.2680 c          1 BX7       0.670100
     15 C17         -6.1100    -0.2290    -0.5680 ca         1 BX7       0.028000
     16 C18         -4.7120    -0.3650    -0.4250 ca         1 BX7      -0.199000
     17 C19          3.9000    -0.8900    -0.5080 c3         1 BX7      -0.128400
     18 C20         -6.6270     0.9730    -1.0800 ca         1 BX7      -0.206000
     19 C22         -3.8470     0.6830    -0.7800 ca         1 BX7       0.345000
     20 C23          4.2400    -2.3720    -0.7600 c3         1 BX7       0.108000
     21 C24         -5.7690     2.0200    -1.4530 ca         1 BX7      -0.057000
     22 C25         -4.3820     1.8710    -1.3070 ca         1 BX7      -0.165000
     23 C26          0.8850     1.4440    -0.2630 ca         1 BX7       0.457900
     24 C27         -1.3840     1.3130    -0.4260 ca         1 BX7       0.440900
     25 C28          0.7900     2.8270    -0.0160 ca         1 BX7      -0.049000
     26 C29          6.4430    -2.7370     0.4040 c          1 BX7       0.642700
     27 C30         -0.5010     3.3790     0.0100 ca         1 BX7       0.206900
     28 C31          7.8800    -2.9440     0.1460 cc         1 BX7      -0.295600
     29 C32          8.8250    -3.0940     1.1330 cd         1 BX7      -0.061000
     30 C33         10.1380    -3.2780     0.6230 cd         1 BX7      -0.144000
     31 C34         10.2030    -3.2690    -0.7480 cc         1 BX7      -0.222000
     32 H1          -8.0060    -0.9670    -0.3530 hn         1 BX7       0.148000
     33 H2           2.9250     1.4170    -0.1430 hn         1 BX7       0.508000
     34 H3          -2.2070    -0.4980    -0.5780 hn         1 BX7       0.513000
     35 H4           6.1760    -2.6790    -1.6190 hn         1 BX7       0.313500
     36 H5          -9.7990    -4.2910     2.4280 hc         1 BX7       0.055700
     37 H6          -9.9400    -5.7880     1.4990 hc         1 BX7       0.055700
     38 H7         -10.3180    -4.5040    -0.6220 hc         1 BX7       0.055700
     39 H8         -11.3710    -3.7150     0.5580 hc         1 BX7       0.055700
     40 H9          -9.7170    -1.9380     0.9950 h1         1 BX7       0.049950
     41 H10         -9.5210    -2.2040    -0.7600 h1         1 BX7       0.049950
     42 H11         -7.8530    -5.3310     0.2590 h1         1 BX7       0.049950
     43 H12         -7.4530    -4.7350     1.8930 h1         1 BX7       0.049950
     44 H13         -4.2800    -1.2750    -0.0290 ha         1 BX7       0.146000
     45 H14          4.3980    -0.2750    -1.2670 hc         1 BX7       0.056200
     46 H15          4.2970    -0.5890     0.4690 hc         1 BX7       0.056200
     47 H16         -7.7010     1.0980    -1.1980 ha         1 BX7       0.108000
     48 H17          1.8890    -1.2300     0.2230 h1         1 BX7       0.058200
     49 H18          1.9870    -0.9180    -1.5240 h1         1 BX7       0.058200
     50 H19          3.8500    -2.6760    -1.7410 h1         1 BX7       0.060700
     51 H20          3.7590    -2.9990     0.0030 h1         1 BX7       0.060700
     52 H21         -6.1790     2.9420    -1.8600 ha         1 BX7       0.112000
     53 H22         -3.7300     2.6780    -1.6230 ha         1 BX7       0.154000
     54 H23         -0.6630     4.4390     0.1960 h4         1 BX7       0.029100
     55 H24          8.5950    -3.0750     2.1960 ha         1 BX7       0.154000
     56 H25         11.0090    -3.4130     1.2590 ha         1 BX7       0.141000
     57 H26         11.0630    -3.3850    -1.3950 h4         1 BX7       0.153000
     58 N07          2.1220     0.8060    -0.3050 nu         1 BX7      -0.923100
     59 N06         -7.0440    -1.2430    -0.2200 ns         1 BX7      -0.163000
     60 C21          2.3860    -0.6200    -0.5440 c3         1 BX7       0.236800
@<TRIPOS>BOND
     1     1    25 1   
     2     2    28 1   
     3     2    31 1   
     4     3    14 2   
     5     4    26 2   
     6     5    12 1   
     7     5    13 1   
     8     5    14 1   
     9     6    19 1   
    10     6    24 1   
    11     6    34 1   
    12     7    20 1   
    13     7    26 1   
    14     7    35 1   
    15     8    23 ar  
    16     8    24 ar  
    17     9    24 ar  
    18     9    27 ar  
    19    10    11 1   
    20    10    13 1   
    21    10    36 1   
    22    10    37 1   
    23    11    12 1   
    24    11    38 1   
    25    11    39 1   
    26    12    40 1   
    27    12    41 1   
    28    13    42 1   
    29    13    43 1   
    30    14    59 1   
    31    15    16 ar  
    32    15    18 ar  
    33    15    59 1   
    34    16    19 ar  
    35    16    44 1   
    36    17    20 1   
    37    17    45 1   
    38    17    46 1   
    39    17    60 1   
    40    18    21 ar  
    41    18    47 1   
    42    19    22 ar  
    43    20    50 1   
    44    20    51 1   
    45    21    22 ar  
    46    21    52 1   
    47    22    53 1   
    48    23    25 ar  
    49    23    58 1   
    50    25    27 ar  
    51    26    28 1   
    52    27    54 1   
    53    28    29 2   
    54    29    30 1   
    55    29    55 1   
    56    30    31 2   
    57    30    56 1   
    58    31    57 1   
    59    32    59 1   
    60    33    58 1   
    61    48    60 1   
    62    49    60 1   
    63    58    60 1   
@<TRIPOS>SUBSTRUCTURE
     1 BX7         1 TEMP              0 ****  ****    0 ROOT
