@<TRIPOS>MOLECULE
BXA
    7     6     1     0     0
SMALL
bcc


@<TRIPOS>ATOM
      1 C1           1.7000     0.0990     0.0280 c          1 BXA       0.936600
      2 O1           1.4720     1.3120     0.0480 o          1 BXA      -0.817800
      3 C2           0.5280    -0.9050     0.0420 c3         1 BXA      -0.094000
      4 O2           2.7990    -0.4870    -0.0040 o          1 BXA      -0.817800
      5 BR2         -1.2540    -0.0740     0.0750 br         1 BXA      -0.291400
      6 H2           0.5580    -1.5410    -0.8430 h1         1 BXA       0.042200
      7 H2A          0.5870    -1.5480     0.9210 h1         1 BXA       0.042200
@<TRIPOS>BOND
     1     1     2 1   
     2     1     3 1   
     3     1     4 1   
     4     3     5 1   
     5     3     6 1   
     6     3     7 1   
@<TRIPOS>SUBSTRUCTURE
     1 BXA         1 TEMP              0 ****  ****    0 ROOT
