@<TRIPOS>MOLECULE
BXA
    7     6     1     0     0
SMALL
No Charge or Current Charge


@<TRIPOS>ATOM
      1 C1           1.7180     0.0530     0.0150 c          1 BXA       0.726000
      2 O1           1.8320     0.9900     0.7930 o          1 BXA      -0.712500
      3 C2           0.4990    -0.8850     0.1720 c3         1 BXA      -0.011400
      4 O2           2.5020    -0.1650    -0.9000 o          1 BXA      -0.712500
      5 Br2         -1.1320    -0.3140    -0.8640 br         1 BXA      -0.374000
      6 H2           0.7640    -1.8910    -0.1770 h1         1 BXA       0.042200
      7 H2A          0.2070    -0.9320     1.2280 h1         1 BXA       0.042200
@<TRIPOS>BOND
     1     1     2 1   
     2     1     3 1   
     3     1     4 1   
     4     3     5 1   
     5     3     6 1   
     6     3     7 1   
@<TRIPOS>SUBSTRUCTURE
     1 BXA         1 TEMP              0 ****  ****    0 ROOT
