@<TRIPOS>MOLECULE
BXB
   32    34     1     0     0
SMALL
abcg2


@<TRIPOS>ATOM
      1 C1           2.4400     0.1780     0.0340 ca         1 BXB      -0.144600
      2 C2           3.4890    -0.6870    -0.2480 ca         1 BXB       0.150500
      3 C3           4.4460    -0.3850    -1.2020 ca         1 BXB      -0.106500
      4 C4           4.3540     0.8160    -1.8880 ca         1 BXB      -0.082000
      5 C5           3.3200     1.7040    -1.6300 ca         1 BXB      -0.106500
      6 C6           2.3780     1.3740    -0.6700 ca         1 BXB       0.150500
      7 C7           1.4400    -0.1350     1.1140 c          1 BXB       0.626700
      8 N8           0.3880    -0.8370     0.6820 ns         1 BXB      -0.494900
      9 O9           1.6160     0.2480     2.2570 o          1 BXB      -0.571100
     10 CL10         3.5920    -2.1850     0.6120 cl         1 BXB      -0.178500
     11 CL11         1.0830     2.4740    -0.3460 cl         1 BXB      -0.178500
     12 C12         -0.7160    -1.2570     1.5190 c3         1 BXB       0.150300
     13 C13         -2.0430    -0.9480     0.8790 ca         1 BXB      -0.114300
     14 C14         -2.9760    -1.9560     0.6920 ca         1 BXB      -0.101000
     15 C15         -4.2310    -1.7080     0.1180 ca         1 BXB      -0.100000
     16 C16         -4.4920    -0.4160    -0.2600 ca         1 BXB       0.060100
     17 C17         -3.5620     0.5980    -0.0810 ca         1 BXB       0.051100
     18 C18         -2.3340     0.3690     0.4820 ca         1 BXB      -0.080000
     19 O19         -4.0690     1.7630    -0.5470 os         1 BXB      -0.344100
     20 C20         -5.3920     1.4880    -0.9930 c5         1 BXB       0.375600
     21 O21         -5.6040     0.0900    -0.8430 os         1 BXB      -0.345100
     22 H3           5.2510    -1.0770    -1.4070 ha         1 BXB       0.137000
     23 H4           5.0970     1.0620    -2.6340 ha         1 BXB       0.126000
     24 H5           3.2500     2.6380    -2.1690 ha         1 BXB       0.137000
     25 HN8          0.3720    -1.1260    -0.2850 hn         1 BXB       0.322500
     26 H12         -0.6430    -2.3280     1.7220 h1         1 BXB       0.066200
     27 H12A        -0.6220    -0.7450     2.4760 h1         1 BXB       0.066200
     28 H14         -2.7320    -2.9660     0.9940 ha         1 BXB       0.119000
     29 H15         -4.9500    -2.5020    -0.0260 ha         1 BXB       0.135000
     30 H18         -1.6150     1.1690     0.6100 ha         1 BXB       0.143000
     31 H20         -6.1110     2.0390    -0.3820 h2         1 BXB       0.064700
     32 H20A        -5.4920     1.7670    -2.0440 h2         1 BXB       0.064700
@<TRIPOS>BOND
     1     1     2 ar  
     2     1     6 ar  
     3     1     7 1   
     4     2     3 ar  
     5     2    10 1   
     6     3     4 ar  
     7     3    22 1   
     8     4     5 ar  
     9     4    23 1   
    10     5     6 ar  
    11     5    24 1   
    12     6    11 1   
    13     7     8 1   
    14     7     9 2   
    15     8    12 1   
    16     8    25 1   
    17    12    13 1   
    18    12    26 1   
    19    12    27 1   
    20    13    14 ar  
    21    13    18 ar  
    22    14    15 ar  
    23    14    28 1   
    24    15    16 ar  
    25    15    29 1   
    26    16    17 ar  
    27    16    21 1   
    28    17    18 ar  
    29    17    19 1   
    30    18    30 1   
    31    19    20 1   
    32    20    21 1   
    33    20    31 1   
    34    20    32 1   
@<TRIPOS>SUBSTRUCTURE
     1 BXB         1 TEMP              0 ****  ****    0 ROOT
