@<TRIPOS>MOLECULE
BXB
   32    34     1     0     0
SMALL
No Charge or Current Charge


@<TRIPOS>ATOM
      1 C1           2.2880     0.3240    -0.1110 ca         1 BXB      -0.144600
      2 C2           3.3060    -0.6610    -0.1530 ca         1 BXB       0.150500
      3 C3           4.3750    -0.5410    -1.0570 ca         1 BXB      -0.106500
      4 C4           4.4500     0.5560    -1.9280 ca         1 BXB      -0.082000
      5 C5           3.4510     1.5390    -1.8920 ca         1 BXB      -0.106500
      6 C6           2.3790     1.4300    -0.9900 ca         1 BXB       0.150500
      7 C7           1.1360     0.2230     0.8480 c          1 BXB       0.626700
      8 N8           0.4670    -0.9800     0.8560 ns         1 BXB      -0.494900
      9 O9           0.8270     1.1350     1.6020 o          1 BXB      -0.571100
     10 Cl10         3.3330    -2.0360     0.9540 cl         1 BXB      -0.178500
     11 Cl11         1.1320     2.6780    -1.0490 cl         1 BXB      -0.178500
     12 C12         -0.6990    -1.2820     1.6860 c3         1 BXB       0.150300
     13 C13         -1.9910    -0.9550     0.9540 ca         1 BXB      -0.114300
     14 C14         -2.6540    -1.9540     0.1960 ca         1 BXB      -0.101000
     15 C15         -3.8500    -1.6560    -0.4920 ca         1 BXB      -0.100000
     16 C16         -4.3520    -0.3520    -0.4070 ca         1 BXB       0.060100
     17 C17         -3.7160     0.6140     0.3200 ca         1 BXB       0.051100
     18 C18         -2.5310     0.3510     1.0170 ca         1 BXB      -0.080000
     19 O19         -4.3680     1.8050     0.2810 os         1 BXB      -0.344100
     20 C20         -5.4960     1.5280    -0.6240 c5         1 BXB       0.375600
     21 O21         -5.4860     0.1030    -0.9960 os         1 BXB      -0.345100
     22 H3           5.1550    -1.2980    -1.0740 ha         1 BXB       0.137000
     23 H4           5.2800     0.6440    -2.6270 ha         1 BXB       0.126000
     24 H5           3.5020     2.3870    -2.5700 ha         1 BXB       0.137000
     25 HN8          0.7980    -1.6890     0.2140 hn         1 BXB       0.322500
     26 H12         -0.6790    -2.3480     1.9460 h1         1 BXB       0.066200
     27 H12A        -0.6450    -0.7140     2.6250 h1         1 BXB       0.066200
     28 H14         -2.2420    -2.9600     0.1410 ha         1 BXB       0.119000
     29 H15         -4.3680    -2.4150    -1.0740 ha         1 BXB       0.135000
     30 H18         -2.0410     1.1370     1.5880 ha         1 BXB       0.143000
     31 H20         -6.4390     1.7700    -0.1200 h2         1 BXB       0.064700
     32 H20A        -5.3870     2.1360    -1.5290 h2         1 BXB       0.064700
@<TRIPOS>BOND
     1     1     2 ar  
     2     1     6 ar  
     3     1     7 1   
     4     2     3 ar  
     5     2    10 1   
     6     3     4 ar  
     7     3    22 1   
     8     4     5 ar  
     9     4    23 1   
    10     5     6 ar  
    11     5    24 1   
    12     6    11 1   
    13     7     8 1   
    14     7     9 2   
    15     8    12 1   
    16     8    25 1   
    17    12    13 1   
    18    12    26 1   
    19    12    27 1   
    20    13    14 ar  
    21    13    18 ar  
    22    14    15 ar  
    23    14    28 1   
    24    15    16 ar  
    25    15    29 1   
    26    16    17 ar  
    27    16    21 1   
    28    17    18 ar  
    29    17    19 1   
    30    18    30 1   
    31    19    20 1   
    32    20    21 1   
    33    20    31 1   
    34    20    32 1   
@<TRIPOS>SUBSTRUCTURE
     1 BXB         1 TEMP              0 ****  ****    0 ROOT
