@<TRIPOS>MOLECULE
BXC
   80    80     1     0     0
SMALL
No Charge or Current Charge


@<TRIPOS>ATOM
      1 CAA         12.5130     1.7760    -1.9870 c3         1 BXC      -0.087100
      2 CAB         12.5560     1.6010    -0.4500 c3         1 BXC      -0.059700
      3 CAC         13.4650     2.6720     0.1960 c3         1 BXC      -0.087100
      4 CAD         11.1460     1.6060     0.2010 c3         1 BXC      -0.073400
      5 CAE         10.2130     0.4590    -0.2590 c3         1 BXC      -0.073400
      6 CAF          8.8650     0.4420     0.5020 c3         1 BXC      -0.073400
      7 CAG          7.8290    -0.6000    -0.0100 c3         1 BXC      -0.056700
      8 CAH          8.3380    -2.0580     0.1430 c3         1 BXC      -0.087100
      9 CAI          6.4560    -0.3790     0.6890 c3         1 BXC      -0.073400
     10 CAJ          5.2840    -1.2190     0.1220 c3         1 BXC      -0.073400
     11 CAK          3.9230    -0.8600     0.7660 c3         1 BXC      -0.073400
     12 CAL          2.6870    -1.5750     0.1470 c3         1 BXC      -0.055700
     13 CAM          2.7560    -3.1170     0.3130 c3         1 BXC      -0.087100
     14 CAN          1.3740    -0.9780     0.7300 c3         1 BXC      -0.073400
     15 CAO          0.0700    -1.4610     0.0490 c3         1 BXC      -0.073400
     16 CAP         -1.1900    -0.7340     0.5820 c3         1 BXC      -0.073400
     17 CAQ         -2.5160    -1.0840    -0.1530 c3         1 BXC      -0.054700
     18 CAR         -2.8900    -2.5830    -0.0130 c3         1 BXC      -0.090100
     19 CAS         -3.6620    -0.1490     0.3290 c3         1 BXC      -0.081400
     20 CAT         -4.9790    -0.2750    -0.4660 c3         1 BXC       0.169600
     21 OAU         -5.8730     0.7450     0.0080 os         1 BXC      -0.456000
     22 CAV         -7.1540     0.8190    -0.6440 c6         1 BXC       0.355300
     23 OAW         -7.8900    -0.3880    -0.3430 os         1 BXC      -0.460000
     24 CAX         -9.1530    -0.4760    -1.0410 c6         1 BXC       0.133600
     25 CAY        -10.0920     0.6920    -0.6160 c6         1 BXC       0.107300
     26 OAZ        -10.4360     0.5960     0.7880 oh         1 BXC      -0.666000
     27 CBA         -9.3550     2.0430    -0.8970 c6         1 BXC       0.190300
     28 OBB        -10.1860     3.1520    -0.5090 oh         1 BXC      -0.617000
     29 CBC         -7.9730     2.0690    -0.1550 c6         1 BXC       0.172300
     30 OBD         -8.1790     2.0540     1.2810 oh         1 BXC      -0.668000
     31 HAA         13.5280     1.8150    -2.4000 hc         1 BXC       0.031533
     32 HAAA        11.9960     0.9380    -2.4680 hc         1 BXC       0.031533
     33 HAAB        11.9980     2.7050    -2.2600 hc         1 BXC       0.031533
     34 HAB         13.0140     0.6250    -0.2440 hc         1 BXC       0.043700
     35 HAC         13.0650     3.6790     0.0260 hc         1 BXC       0.031533
     36 HACA        13.5450     2.5130     1.2780 hc         1 BXC       0.031533
     37 HACB        14.4770     2.6280    -0.2250 hc         1 BXC       0.031533
     38 HAD         11.2630     1.5370     1.2900 hc         1 BXC       0.036700
     39 HADA        10.6580     2.5680     0.0000 hc         1 BXC       0.036700
     40 HAE         10.0100     0.5570    -1.3320 hc         1 BXC       0.038700
     41 HAEA        10.7350    -0.4940    -0.1120 hc         1 BXC       0.038700
     42 HAF          9.0560     0.2670     1.5680 hc         1 BXC       0.036700
     43 HAFA         8.4220     1.4430     0.4260 hc         1 BXC       0.036700
     44 HAG          7.6820    -0.4140    -1.0810 hc         1 BXC       0.043700
     45 HAH          8.5010    -2.3060     1.1990 hc         1 BXC       0.031700
     46 HAHA         7.6230    -2.7760    -0.2730 hc         1 BXC       0.031700
     47 HAHB         9.2800    -2.2100    -0.3950 hc         1 BXC       0.031700
     48 HAI          6.5580    -0.5850     1.7620 hc         1 BXC       0.036700
     49 HAIA         6.1860     0.6810     0.6010 hc         1 BXC       0.036700
     50 HAJ          5.2220    -1.0660    -0.9630 hc         1 BXC       0.038700
     51 HAJA         5.4910    -2.2810     0.2910 hc         1 BXC       0.038700
     52 HAK          3.9660    -1.0770     1.8410 hc         1 BXC       0.037200
     53 HAKA         3.7800     0.2240     0.6750 hc         1 BXC       0.037200
     54 HAL          2.6920    -1.3600    -0.9290 hc         1 BXC       0.043700
     55 HAM          2.7540    -3.3960     1.3740 hc         1 BXC       0.032033
     56 HAMA         1.9070    -3.6090    -0.1730 hc         1 BXC       0.032033
     57 HAMB         3.6610    -3.5280    -0.1490 hc         1 BXC       0.032033
     58 HAN          1.3210    -1.2000     1.8040 hc         1 BXC       0.037200
     59 HANA         1.4180     0.1150     0.6420 hc         1 BXC       0.037200
     60 HAO          0.1480    -1.3010    -1.0340 hc         1 BXC       0.038700
     61 HAOA        -0.0430    -2.5370     0.2130 hc         1 BXC       0.038700
     62 HAP         -1.3010    -0.9480     1.6520 hc         1 BXC       0.039200
     63 HAPA        -1.0190     0.3470     0.4980 hc         1 BXC       0.039200
     64 HAQ         -2.3600    -0.8820    -1.2210 hc         1 BXC       0.042700
     65 HAR         -3.8080    -2.8180    -0.5620 hc         1 BXC       0.034033
     66 HARA        -2.1060    -3.2290    -0.4230 hc         1 BXC       0.034033
     67 HARB        -3.0410    -2.8510     1.0400 hc         1 BXC       0.034033
     68 HAS         -3.8660    -0.3420     1.3900 hc         1 BXC       0.052700
     69 HASA        -3.3230     0.8920     0.2580 hc         1 BXC       0.052700
     70 HAT         -4.7760    -0.1420    -1.5370 h1         1 BXC       0.032200
     71 HATA        -5.4150    -1.2710    -0.3150 h1         1 BXC       0.032200
     72 HAV         -6.9990     0.8920    -1.7310 h2         1 BXC       0.013700
     73 HAX         -8.9720    -0.4430    -2.1260 h1         1 BXC       0.046700
     74 HAXA        -9.6230    -1.4420    -0.8090 h1         1 BXC       0.046700
     75 HAY        -11.0050     0.6510    -1.2290 h1         1 BXC       0.021700
     76 HOAZ       -11.0460    -0.1730     0.8860 ho         1 BXC       0.494000
     77 HBA         -9.1580     2.1070    -1.9770 h1         1 BXC       0.020700
     78 HOBB       -10.5680     2.8930     0.3580 ho         1 BXC       0.440000
     79 HBC         -7.4290     2.9770    -0.4510 h1         1 BXC       0.043700
     80 HOBD        -8.9060     1.3860     1.4000 ho         1 BXC       0.512000
@<TRIPOS>BOND
     1     1     2 1   
     2     1    31 1   
     3     1    32 1   
     4     1    33 1   
     5     2     3 1   
     6     2     4 1   
     7     2    34 1   
     8     3    35 1   
     9     3    36 1   
    10     3    37 1   
    11     4     5 1   
    12     4    38 1   
    13     4    39 1   
    14     5     6 1   
    15     5    40 1   
    16     5    41 1   
    17     6     7 1   
    18     6    42 1   
    19     6    43 1   
    20     7     8 1   
    21     7     9 1   
    22     7    44 1   
    23     8    45 1   
    24     8    46 1   
    25     8    47 1   
    26     9    10 1   
    27     9    48 1   
    28     9    49 1   
    29    10    11 1   
    30    10    50 1   
    31    10    51 1   
    32    11    12 1   
    33    11    52 1   
    34    11    53 1   
    35    12    13 1   
    36    12    14 1   
    37    12    54 1   
    38    13    55 1   
    39    13    56 1   
    40    13    57 1   
    41    14    15 1   
    42    14    58 1   
    43    14    59 1   
    44    15    16 1   
    45    15    60 1   
    46    15    61 1   
    47    16    17 1   
    48    16    62 1   
    49    16    63 1   
    50    17    18 1   
    51    17    19 1   
    52    17    64 1   
    53    18    65 1   
    54    18    66 1   
    55    18    67 1   
    56    19    20 1   
    57    19    68 1   
    58    19    69 1   
    59    20    21 1   
    60    20    70 1   
    61    20    71 1   
    62    21    22 1   
    63    22    23 1   
    64    22    29 1   
    65    22    72 1   
    66    23    24 1   
    67    24    25 1   
    68    24    73 1   
    69    24    74 1   
    70    25    26 1   
    71    25    27 1   
    72    25    75 1   
    73    26    76 1   
    74    27    28 1   
    75    27    29 1   
    76    27    77 1   
    77    28    78 1   
    78    29    30 1   
    79    29    79 1   
    80    30    80 1   
@<TRIPOS>SUBSTRUCTURE
     1 BXC         1 TEMP              0 ****  ****    0 ROOT
