@<TRIPOS>MOLECULE
BXC
   80    80     1     0     0
SMALL
abcg2


@<TRIPOS>ATOM
      1 CAA         12.7550     1.1450    -1.6620 c3         1 BXC      -0.087100
      2 CAB         12.5710     1.2560    -0.1510 c3         1 BXC      -0.059700
      3 CAC         13.4350     2.3790     0.4120 c3         1 BXC      -0.087100
      4 CAD         11.1060     1.4650     0.2380 c3         1 BXC      -0.073400
      5 CAE         10.1680     0.3300    -0.1570 c3         1 BXC      -0.073400
      6 CAF          8.7570     0.5280     0.3850 c3         1 BXC      -0.073400
      7 CAG          7.7290    -0.5050    -0.0830 c3         1 BXC      -0.056700
      8 CAH          8.1210    -1.9190     0.3350 c3         1 BXC      -0.087100
      9 CAI          6.3380    -0.1260     0.4350 c3         1 BXC      -0.073400
     10 CAJ          5.1890    -0.9450    -0.1440 c3         1 BXC      -0.073400
     11 CAK          3.8330    -0.5130     0.4030 c3         1 BXC      -0.073400
     12 CAL          2.6230    -1.2340    -0.1980 c3         1 BXC      -0.055700
     13 CAM          2.6890    -2.7410     0.0370 c3         1 BXC      -0.087100
     14 CAN          1.3360    -0.6290     0.3700 c3         1 BXC      -0.073400
     15 CAO          0.0420    -1.1700    -0.2250 c3         1 BXC      -0.073400
     16 CAP         -1.1920    -0.4860     0.3540 c3         1 BXC      -0.073400
     17 CAQ         -2.5250    -0.9500    -0.2400 c3         1 BXC      -0.054700
     18 CAR         -2.7810    -2.4310     0.0300 c3         1 BXC      -0.090100
     19 CAS         -3.6600    -0.0770     0.3060 c3         1 BXC      -0.081400
     20 CAT         -4.9860    -0.2970    -0.3950 c3         1 BXC       0.169600
     21 OAU         -5.9470     0.5810     0.1750 os         1 BXC      -0.456000
     22 CAV         -7.1700     0.6070    -0.4550 c6         1 BXC       0.355300
     23 OAW         -7.8180    -0.6190    -0.2370 os         1 BXC      -0.460000
     24 CAX         -9.0560    -0.6850    -0.9060 c6         1 BXC       0.133600
     25 CAY        -10.0350     0.3620    -0.3870 c6         1 BXC       0.107300
     26 OAZ        -10.4250     0.1260     0.9420 oh         1 BXC      -0.666000
     27 CBA         -9.3710     1.7350    -0.5000 c6         1 BXC       0.190300
     28 OBB        -10.1350     2.7750     0.0480 oh         1 BXC      -0.617000
     29 CBC         -7.9800     1.7720     0.1220 c6         1 BXC       0.172300
     30 OBD         -8.0690     1.7090     1.5180 oh         1 BXC      -0.668000
     31 HAA         13.8060     1.0000    -1.9200 hc         1 BXC       0.031533
     32 HAAA        12.1970     0.3080    -2.0840 hc         1 BXC       0.031533
     33 HAAB        12.4150     2.0560    -2.1620 hc         1 BXC       0.031533
     34 HAB         12.9040     0.3140     0.3010 hc         1 BXC       0.043700
     35 HAC         13.1310     3.3460     0.0040 hc         1 BXC       0.031533
     36 HACA        13.3520     2.4390     1.4990 hc         1 BXC       0.031533
     37 HACB        14.4890     2.2360     0.1670 hc         1 BXC       0.031533
     38 HAD         11.0500     1.6070     1.3230 hc         1 BXC       0.036700
     39 HADA        10.7490     2.4030    -0.2050 hc         1 BXC       0.036700
     40 HAE         10.1220     0.2420    -1.2470 hc         1 BXC       0.038700
     41 HAEA        10.5840    -0.6160     0.2070 hc         1 BXC       0.038700
     42 HAF          8.7860     0.5310     1.4820 hc         1 BXC       0.036700
     43 HAFA         8.4070     1.5240     0.0910 hc         1 BXC       0.036700
     44 HAG          7.6960    -0.4700    -1.1800 hc         1 BXC       0.043700
     45 HAH          8.2150    -1.9900     1.4230 hc         1 BXC       0.031700
     46 HAHA         7.3820    -2.6560     0.0200 hc         1 BXC       0.031700
     47 HAHB         9.0750    -2.2200    -0.0990 hc         1 BXC       0.031700
     48 HAI          6.3270    -0.2090     1.5290 hc         1 BXC       0.036700
     49 HAIA         6.1590     0.9330     0.2130 hc         1 BXC       0.036700
     50 HAJ          5.1920    -0.8500    -1.2360 hc         1 BXC       0.038700
     51 HAJA         5.3470    -2.0050     0.0690 hc         1 BXC       0.038700
     52 HAK          3.8240    -0.6550     1.4910 hc         1 BXC       0.037200
     53 HAKA         3.7140     0.5640     0.2420 hc         1 BXC       0.037200
     54 HAL          2.6300    -1.0570    -1.2820 hc         1 BXC       0.043700
     55 HAM          2.6830    -2.9670     1.1070 hc         1 BXC       0.032033
     56 HAMA         1.8450    -3.2620    -0.4150 hc         1 BXC       0.032033
     57 HAMB         3.5940    -3.1800    -0.3860 hc         1 BXC       0.032033
     58 HAN          1.3230    -0.7820     1.4560 hc         1 BXC       0.037200
     59 HANA         1.3660     0.4570     0.2230 hc         1 BXC       0.037200
     60 HAO          0.0550    -1.0380    -1.3130 hc         1 BXC       0.038700
     61 HAOA        -0.0210    -2.2460    -0.0510 hc         1 BXC       0.038700
     62 HAP         -1.2120    -0.6370     1.4400 hc         1 BXC       0.039200
     63 HAPA        -1.0980     0.5950     0.2020 hc         1 BXC       0.039200
     64 HAQ         -2.4720    -0.8000    -1.3270 hc         1 BXC       0.042700
     65 HAR         -3.7070    -2.7800    -0.4290 hc         1 BXC       0.034033
     66 HARA        -1.9820    -3.0600    -0.3620 hc         1 BXC       0.034033
     67 HARB        -2.8530    -2.6180     1.1040 hc         1 BXC       0.034033
     68 HAS         -3.7770    -0.2710     1.3790 hc         1 BXC       0.052700
     69 HASA        -3.3830     0.9770     0.2030 hc         1 BXC       0.052700
     70 HAT         -4.8800    -0.0900    -1.4680 h1         1 BXC       0.032200
     71 HATA        -5.3150    -1.3350    -0.2920 h1         1 BXC       0.032200
     72 HAV         -7.0510     0.7660    -1.5450 h2         1 BXC       0.013700
     73 HAX         -8.9230    -0.5490    -1.9900 h1         1 BXC       0.046700
     74 HAXA        -9.4530    -1.6910    -0.7550 h1         1 BXC       0.046700
     75 HAY        -10.9060     0.3520    -1.0610 h1         1 BXC       0.021700
     76 HOAZ       -10.9360    -0.6890     0.9600 ho         1 BXC       0.494000
     77 HBA         -9.2140     1.8910    -1.5790 h1         1 BXC       0.020700
     78 HOBB       -10.9700     2.8170    -0.4280 ho         1 BXC       0.440000
     79 HBC         -7.4920     2.7030    -0.2040 h1         1 BXC       0.043700
     80 HOBD        -7.1760     1.7640     1.8720 ho         1 BXC       0.512000
@<TRIPOS>BOND
     1     1     2 1   
     2     1    31 1   
     3     1    32 1   
     4     1    33 1   
     5     2     3 1   
     6     2     4 1   
     7     2    34 1   
     8     3    35 1   
     9     3    36 1   
    10     3    37 1   
    11     4     5 1   
    12     4    38 1   
    13     4    39 1   
    14     5     6 1   
    15     5    40 1   
    16     5    41 1   
    17     6     7 1   
    18     6    42 1   
    19     6    43 1   
    20     7     8 1   
    21     7     9 1   
    22     7    44 1   
    23     8    45 1   
    24     8    46 1   
    25     8    47 1   
    26     9    10 1   
    27     9    48 1   
    28     9    49 1   
    29    10    11 1   
    30    10    50 1   
    31    10    51 1   
    32    11    12 1   
    33    11    52 1   
    34    11    53 1   
    35    12    13 1   
    36    12    14 1   
    37    12    54 1   
    38    13    55 1   
    39    13    56 1   
    40    13    57 1   
    41    14    15 1   
    42    14    58 1   
    43    14    59 1   
    44    15    16 1   
    45    15    60 1   
    46    15    61 1   
    47    16    17 1   
    48    16    62 1   
    49    16    63 1   
    50    17    18 1   
    51    17    19 1   
    52    17    64 1   
    53    18    65 1   
    54    18    66 1   
    55    18    67 1   
    56    19    20 1   
    57    19    68 1   
    58    19    69 1   
    59    20    21 1   
    60    20    70 1   
    61    20    71 1   
    62    21    22 1   
    63    22    23 1   
    64    22    29 1   
    65    22    72 1   
    66    23    24 1   
    67    24    25 1   
    68    24    73 1   
    69    24    74 1   
    70    25    26 1   
    71    25    27 1   
    72    25    75 1   
    73    26    76 1   
    74    27    28 1   
    75    27    29 1   
    76    27    77 1   
    77    28    78 1   
    78    29    30 1   
    79    29    79 1   
    80    30    80 1   
@<TRIPOS>SUBSTRUCTURE
     1 BXC         1 TEMP              0 ****  ****    0 ROOT
