@<TRIPOS>MOLECULE
BXE
   20    20     1     0     0
SMALL
No Charge or Current Charge


@<TRIPOS>ATOM
      1 NAD         -2.4980    -0.4730    -0.7870 nc         1 BXE      -0.495800
      2 NAB         -3.6450     0.1400    -0.3620 na         1 BXE       0.124600
      3 NAA         -3.4950     0.8340     0.8040 nc         1 BXE      -0.144800
      4 NAC         -2.2470     0.6720     1.1360 nd         1 BXE      -0.396000
      5 CAE         -1.6660    -0.1180     0.1700 cd         1 BXE       0.468300
      6 CAF         -0.2170    -0.5280     0.1850 c3         1 BXE      -0.074700
      7 CAG          0.7020     0.4620    -0.5810 c3         1 BXE      -0.141400
      8 CAH          2.1630     0.0150    -0.5530 c          1 BXE       0.608100
      9 OAI          2.5770    -0.9280    -1.2120 o          1 BXE      -0.526100
     10 NAJ          3.0170     0.7690     0.2520 ns         1 BXE      -0.435300
     11 NAK          4.4800     0.3720     0.2980 nz         1 BXE      -0.760200
     12 HAB         -4.5350     0.0920    -0.8590 hn         1 BXE       0.422000
     13 HAG          0.1230    -0.6120     1.2240 hc         1 BXE       0.088200
     14 HAF         -0.1200    -1.5290    -0.2520 hc         1 BXE       0.088200
     15 HAI          0.3750     0.5020    -1.6270 hc         1 BXE       0.096200
     16 HAH          0.6050     1.4560    -0.1270 hc         1 BXE       0.096200
     17 HAJ          2.6330     1.5570     0.7840 hn         1 BXE       0.385500
     18 HAK          4.6830    -0.4470    -0.3060 hn         1 BXE       0.531667
     19 HAL          5.1690     1.0360    -0.1020 hn         1 BXE       0.531667
     20 HAM          4.8480     0.0020     1.1940 hn         1 BXE       0.531667
@<TRIPOS>BOND
     1     1     2 1   
     2     1     5 2   
     3     2     3 1   
     4     2    12 1   
     5     3     4 2   
     6     4     5 1   
     7     5     6 1   
     8     6     7 1   
     9     6    13 1   
    10     6    14 1   
    11     7     8 1   
    12     7    15 1   
    13     7    16 1   
    14     8     9 2   
    15     8    10 1   
    16    10    11 1   
    17    10    17 1   
    18    11    18 1   
    19    11    19 1   
    20    11    20 1   
@<TRIPOS>SUBSTRUCTURE
     1 BXE         1 TEMP              0 ****  ****    0 ROOT
