@<TRIPOS>MOLECULE
BXE
   20    20     1     0     0
SMALL
abcg2


@<TRIPOS>ATOM
      1 NAD         -2.6000    -0.5170    -0.8690 nc         1 BXE      -0.495800
      2 NAB         -3.6130     0.2050    -0.4720 na         1 BXE       0.124600
      3 NAA         -3.3660     0.9590     0.5530 nc         1 BXE      -0.144800
      4 NAC         -2.1320     0.7400     0.8700 nd         1 BXE      -0.396000
      5 CAE         -1.6660    -0.1690    -0.0070 cd         1 BXE       0.468300
      6 CAF         -0.2840    -0.7140     0.0030 c3         1 BXE      -0.074700
      7 CAG          0.7520     0.4030    -0.0570 c3         1 BXE      -0.141400
      8 CAH          2.1580    -0.1270    -0.0800 c          1 BXE       0.608100
      9 OAI          2.4770    -1.2640    -0.3550 o          1 BXE      -0.526100
     10 NAJ          3.1000     0.8040     0.2510 ns         1 BXE      -0.435300
     11 NAK          4.4400     0.4730     0.0730 nz         1 BXE      -0.760200
     12 HAB         -4.5190     0.1830    -0.9220 hn         1 BXE       0.422000
     13 HAG         -0.1410    -1.3040     0.9110 hc         1 BXE       0.088200
     14 HAF         -0.1710    -1.3910    -0.8420 hc         1 BXE       0.088200
     15 HAI          0.6170     1.0000    -0.9650 hc         1 BXE       0.096200
     16 HAH          0.6320     1.0910     0.7810 hc         1 BXE       0.096200
     17 HAJ          2.9130     1.7930     0.3210 hn         1 BXE       0.385500
     18 HAK          4.5120    -0.5420    -0.0680 hn         1 BXE       0.531667
     19 HAL          4.8490     0.9340    -0.7450 hn         1 BXE       0.531667
     20 HAM          4.9940     0.7180     0.8960 hn         1 BXE       0.531667
@<TRIPOS>BOND
     1     1     2 1   
     2     1     5 2   
     3     2     3 1   
     4     2    12 1   
     5     3     4 2   
     6     4     5 1   
     7     5     6 1   
     8     6     7 1   
     9     6    13 1   
    10     6    14 1   
    11     7     8 1   
    12     7    15 1   
    13     7    16 1   
    14     8     9 2   
    15     8    10 1   
    16    10    11 1   
    17    10    17 1   
    18    11    18 1   
    19    11    19 1   
    20    11    20 1   
@<TRIPOS>SUBSTRUCTURE
     1 BXE         1 TEMP              0 ****  ****    0 ROOT
