@<TRIPOS>MOLECULE
BXF
   19    19     1     0     0
SMALL
bcc


@<TRIPOS>ATOM
      1 C1         -11.5670   -10.2170    -5.0970 c6         1 BXF       0.322900
      2 O1         -12.4190   -10.1750    -6.1750 oh         1 BXF      -0.561800
      3 C2         -10.4420   -11.2000    -5.4050 c6         1 BXF       0.154600
      4 F          -10.9890   -12.4700    -5.5430 f          1 BXF      -0.224300
      5 C3          -9.4200   -11.2140    -4.2850 c6         1 BXF       0.126100
      6 O3          -8.3760   -12.0740    -4.6540 oh         1 BXF      -0.578800
      7 C4          -8.9420    -9.7890    -4.0220 c6         1 BXF       0.069100
      8 O4          -8.1000    -9.8300    -2.8970 oh         1 BXF      -0.597800
      9 C5         -10.1500    -8.8850    -3.7900 c6         1 BXF       0.112400
     10 O5         -11.0210    -8.9360    -4.8980 os         1 BXF      -0.431600
     11 H1         -12.0830   -10.5420    -4.1760 h2         1 BXF       0.029700
     12 H2          -9.9660   -10.9320    -6.3550 h1         1 BXF       0.090700
     13 H3          -9.9240   -11.5690    -3.3700 h1         1 BXF       0.051700
     14 H4          -8.4030    -9.4330    -4.9120 h1         1 BXF       0.059700
     15 HO4         -7.5790    -9.0220    -2.8690 ho         1 BXF       0.415000
     16 H51        -10.6620    -9.1880    -2.8650 h1         1 BXF       0.057200
     17 H52         -9.8370    -7.8470    -3.6730 h1         1 BXF       0.057200
     18 HO1        -13.2700    -9.8170    -5.8990 ho         1 BXF       0.424000
     19 HO3         -7.7520   -12.1140    -3.9210 ho         1 BXF       0.423000
@<TRIPOS>BOND
     1     1     2 1   
     2     1     3 1   
     3     1    10 1   
     4     1    11 1   
     5     2    18 1   
     6     3     4 1   
     7     3     5 1   
     8     3    12 1   
     9     5     6 1   
    10     5     7 1   
    11     5    13 1   
    12     6    19 1   
    13     7     8 1   
    14     7     9 1   
    15     7    14 1   
    16     8    15 1   
    17     9    10 1   
    18     9    16 1   
    19     9    17 1   
@<TRIPOS>SUBSTRUCTURE
     1 BXF         1 TEMP              0 ****  ****    0 ROOT
