@<TRIPOS>MOLECULE
BXF
   19    19     1     0     0
SMALL
No Charge or Current Charge


@<TRIPOS>ATOM
      1 C1         -11.6520   -10.3230    -5.0650 c6         1 BXF       0.369300
      2 O1         -12.5570   -10.1610    -6.1430 oh         1 BXF      -0.624000
      3 C2         -10.4990   -11.3150    -5.4130 c6         1 BXF       0.173300
      4 F          -11.0280   -12.6260    -5.5100 f          1 BXF      -0.243000
      5 C3          -9.4170   -11.2890    -4.2930 c6         1 BXF       0.149300
      6 O3          -8.2730   -12.0980    -4.6220 oh         1 BXF      -0.641000
      7 C4          -8.9530    -9.8270    -4.0220 c6         1 BXF       0.092300
      8 O4          -8.0080    -9.8010    -2.9310 oh         1 BXF      -0.720000
      9 C5         -10.1960    -8.9360    -3.7280 c6         1 BXF       0.135600
     10 O5         -11.1290    -9.0090    -4.8310 os         1 BXF      -0.478000
     11 H1         -12.1910   -10.6680    -4.1700 h2         1 BXF       0.029700
     12 H2         -10.0560   -11.0520    -6.3830 h1         1 BXF       0.090700
     13 H3          -9.8820   -11.6700    -3.3710 h1         1 BXF       0.051700
     14 H4          -8.4770    -9.4420    -4.9380 h1         1 BXF       0.059700
     15 HO4         -7.6480    -8.8830    -2.8700 ho         1 BXF       0.514000
     16 H51        -10.6960    -9.2630    -2.8040 h1         1 BXF       0.057200
     17 H52         -9.8870    -7.8890    -3.5980 h1         1 BXF       0.057200
     18 HO1        -12.7860    -9.2090    -6.1090 ho         1 BXF       0.463000
     19 HO3         -7.5680   -11.7900    -4.0060 ho         1 BXF       0.462000
@<TRIPOS>BOND
     1     1     2 1   
     2     1     3 1   
     3     1    10 1   
     4     1    11 1   
     5     2    18 1   
     6     3     4 1   
     7     3     5 1   
     8     3    12 1   
     9     5     6 1   
    10     5     7 1   
    11     5    13 1   
    12     6    19 1   
    13     7     8 1   
    14     7     9 1   
    15     7    14 1   
    16     8    15 1   
    17     9    10 1   
    18     9    16 1   
    19     9    17 1   
@<TRIPOS>SUBSTRUCTURE
     1 BXF         1 TEMP              0 ****  ****    0 ROOT
