@<TRIPOS>MOLECULE
BXG
   37    39     1     0     0
SMALL
No Charge or Current Charge


@<TRIPOS>ATOM
      1 C10          2.1980     0.6280    -0.1240 ca         1 BXG      -0.164600
      2 N12         -0.2100     0.9500     0.1940 ns         1 BXG      -0.153000
      3 C13         -1.5150     1.4620     0.4500 ca         1 BXG      -0.003000
      4 C15         -3.9460     1.1730     0.5280 ca         1 BXG       0.245000
      5 C17         -4.9470    -0.9610    -0.1530 ca         1 BXG      -0.173000
      6 C20         -4.5740    -3.6700    -1.1410 c3         1 BXG       0.149900
      7 C21         -2.5350    -0.6840    -0.2330 ca         1 BXG      -0.156000
      8 C24         -1.7300     2.7670     0.9370 ca         1 BXG      -0.164000
      9 C02          3.3620     0.9940    -0.8490 ca         1 BXG       0.191000
     10 C03          4.4350     0.0960    -0.9620 ca         1 BXG      -0.123000
     11 C04          4.3820    -1.1700    -0.3640 ca         1 BXG      -0.020000
     12 C05          3.2370    -1.5590     0.3620 ca         1 BXG      -0.187200
     13 C09          2.1530    -0.6570     0.4770 ca         1 BXG      -0.021000
     14 C11          1.0220     1.5730     0.0300 c          1 BXG       0.623700
     15 C14         -2.6550     0.6430     0.2480 ca         1 BXG      -0.058000
     16 C16         -5.0740     0.3560     0.3210 ca         1 BXG      -0.042000
     17 C18         -3.6700    -1.4840    -0.4320 ca         1 BXG       0.149100
     18 C23         -3.0360     3.2080     1.1850 ca         1 BXG       0.356900
     19 N06          3.1760    -2.9120     1.0080 no         1 BXG       0.697200
     20 N22         -4.1230     2.4340     0.9860 nb         1 BXG      -0.656000
     21 O07          2.1460    -3.2230     1.6190 o          1 BXG      -0.391000
     22 O08          4.1580    -3.6580     0.8970 o          1 BXG      -0.391000
     23 O19         -3.4790    -2.7680    -0.9020 os         1 BXG      -0.343100
     24 O25          1.1560     2.7900     0.0500 o          1 BXG      -0.539100
     25 H1          -0.1760    -0.0570     0.1100 hn         1 BXG       0.166000
     26 H2          -5.8470    -1.5530    -0.2970 ha         1 BXG       0.123000
     27 H3          -5.1350    -3.8560    -0.2170 h1         1 BXG       0.043700
     28 H4          -5.2590    -3.2610    -1.8940 h1         1 BXG       0.043700
     29 H5          -4.1990    -4.6330    -1.5100 h1         1 BXG       0.043700
     30 H6          -1.5660    -1.1160    -0.4620 ha         1 BXG       0.122000
     31 H7          -0.9130     3.4480     1.1460 ha         1 BXG       0.142000
     32 H9           5.3170     0.3850    -1.5280 ha         1 BXG       0.148000
     33 H10          5.2340    -1.8410    -0.4740 ha         1 BXG       0.159000
     34 H11          1.2830    -0.9530     1.0620 ha         1 BXG       0.161000
     35 H12         -6.0630     0.7540     0.5330 ha         1 BXG       0.134000
     36 H13         -3.2180     4.2130     1.5630 h4         1 BXG       0.024100
     37 Cl1          3.5240     2.5330    -1.7000 cl         1 BXG      -0.137000
@<TRIPOS>BOND
     1     1     9 ar  
     2     1    13 ar  
     3     1    14 1   
     4     2     3 1   
     5     2    14 1   
     6     2    25 1   
     7     3     8 ar  
     8     3    15 ar  
     9     4    15 ar  
    10     4    16 ar  
    11     4    20 ar  
    12     5    16 ar  
    13     5    17 ar  
    14     5    26 1   
    15     6    23 1   
    16     6    27 1   
    17     6    28 1   
    18     6    29 1   
    19     7    15 ar  
    20     7    17 ar  
    21     7    30 1   
    22     8    18 ar  
    23     8    31 1   
    24     9    10 ar  
    25     9    37 1   
    26    10    11 ar  
    27    10    32 1   
    28    11    12 ar  
    29    11    33 1   
    30    12    13 ar  
    31    12    19 1   
    32    13    34 1   
    33    14    24 2   
    34    16    35 1   
    35    17    23 1   
    36    18    20 ar  
    37    18    36 1   
    38    19    21 1   
    39    19    22 1   
@<TRIPOS>SUBSTRUCTURE
     1 BXG         1 TEMP              0 ****  ****    0 ROOT
