@<TRIPOS>MOLECULE
BXG
   37    39     1     0     0
SMALL
abcg2


@<TRIPOS>ATOM
      1 C10          2.0760     0.3700    -0.1530 ca         1 BXG      -0.164600
      2 N12         -0.2320     0.5630     0.4330 ns         1 BXG      -0.153000
      3 C13         -1.4780     1.1340     0.7110 ca         1 BXG      -0.003000
      4 C15         -3.8980     1.0350     0.6580 ca         1 BXG       0.245000
      5 C17         -5.0560    -0.8050    -0.4140 ca         1 BXG      -0.173000
      6 C20         -4.8880    -3.1820    -1.9070 c3         1 BXG       0.149900
      7 C21         -2.6410    -0.7550    -0.4290 ca         1 BXG      -0.156000
      8 C24         -1.6040     2.3230     1.3780 ca         1 BXG      -0.164000
      9 C02          2.8020     0.3330    -1.3430 ca         1 BXG       0.191000
     10 C03          3.9530    -0.4330    -1.4510 ca         1 BXG      -0.123000
     11 C04          4.4050    -1.1590    -0.3650 ca         1 BXG      -0.020000
     12 C05          3.6830    -1.1170     0.8160 ca         1 BXG      -0.187200
     13 C09          2.5230    -0.3690     0.9310 ca         1 BXG      -0.021000
     14 C11          0.8650     1.2390     0.0060 c          1 BXG       0.623700
     15 C14         -2.6570     0.4450     0.3030 ca         1 BXG      -0.058000
     16 C16         -5.0840     0.3710     0.2840 ca         1 BXG      -0.042000
     17 C18         -3.8170    -1.3770    -0.7860 ca         1 BXG       0.149100
     18 C23         -2.8940     2.8170     1.6530 ca         1 BXG       0.356900
     19 N06          4.1510    -1.8750     1.9670 no         1 BXG       0.697200
     20 N22         -3.9990     2.2080     1.3240 nb         1 BXG      -0.656000
     21 O07          3.5240    -1.7860     2.9950 o          1 BXG      -0.391000
     22 O08          5.1420    -2.5500     1.8310 o          1 BXG      -0.391000
     23 O19         -3.7100    -2.5150    -1.4910 os         1 BXG      -0.343100
     24 O25          0.8990     2.4280    -0.2220 o          1 BXG      -0.539100
     25 H1          -0.1670    -0.4430     0.4800 hn         1 BXG       0.166000
     26 H2          -5.9910    -1.2770    -0.6800 ha         1 BXG       0.123000
     27 H3          -5.4930    -3.5110    -1.0580 h1         1 BXG       0.043700
     28 H4          -5.5010    -2.5580    -2.5610 h1         1 BXG       0.043700
     29 H5          -4.5630    -4.0570    -2.4630 h1         1 BXG       0.043700
     30 H6          -1.7080    -1.2050    -0.7460 ha         1 BXG       0.122000
     31 H7          -0.7450     2.8780     1.7220 ha         1 BXG       0.142000
     32 H9           4.4990    -0.4650    -2.3830 ha         1 BXG       0.148000
     33 H10          5.3060    -1.7460    -0.4560 ha         1 BXG       0.159000
     34 H11          1.9700    -0.3440     1.8610 ha         1 BXG       0.161000
     35 H12         -6.0310     0.8180     0.5580 ha         1 BXG       0.134000
     36 H13         -2.9890     3.7570     2.1870 h4         1 BXG       0.024100
     37 CL1          2.2600     1.1960    -2.7260 cl         1 BXG      -0.137000
@<TRIPOS>BOND
     1     1     9 ar  
     2     1    13 ar  
     3     1    14 1   
     4     2     3 1   
     5     2    14 1   
     6     2    25 1   
     7     3     8 ar  
     8     3    15 ar  
     9     4    15 ar  
    10     4    16 ar  
    11     4    20 ar  
    12     5    16 ar  
    13     5    17 ar  
    14     5    26 1   
    15     6    23 1   
    16     6    27 1   
    17     6    28 1   
    18     6    29 1   
    19     7    15 ar  
    20     7    17 ar  
    21     7    30 1   
    22     8    18 ar  
    23     8    31 1   
    24     9    10 ar  
    25     9    37 1   
    26    10    11 ar  
    27    10    32 1   
    28    11    12 ar  
    29    11    33 1   
    30    12    13 ar  
    31    12    19 1   
    32    13    34 1   
    33    14    24 2   
    34    16    35 1   
    35    17    23 1   
    36    18    20 ar  
    37    18    36 1   
    38    19    21 1   
    39    19    22 1   
@<TRIPOS>SUBSTRUCTURE
     1 BXG         1 TEMP              0 ****  ****    0 ROOT
