@<TRIPOS>MOLECULE
BXH
   19    19     1     0     0
SMALL
No Charge or Current Charge


@<TRIPOS>ATOM
      1 NAD          1.3660     0.4670    -1.1880 nc         1 BXH      -0.509800
      2 NAB          2.5890    -0.1100    -1.3900 na         1 BXH       0.115600
      3 NAA          3.2310    -0.4520    -0.2360 nc         1 BXH      -0.169800
      4 NAC          2.4220    -0.0940     0.7190 nd         1 BXH      -0.371000
      5 CAE          1.3050     0.4500     0.1270 cd         1 BXH       0.503300
      6 CAF          0.1440     0.9920     0.8870 c3         1 BXH      -0.157700
      7 CAG         -0.9620    -0.0380     0.9470 c          1 BXH       0.600100
      8 OAI         -0.9260    -1.0310     1.6600 o          1 BXH      -0.475000
      9 OAH         -2.0210     0.3030     0.1470 os         1 BXH      -0.452100
     10 CAJ         -3.1550    -0.5810     0.1140 c3         1 BXH       0.169600
     11 CAK         -4.1830     0.0250    -0.8530 c3         1 BXH      -0.098100
     12 HAB          2.9960    -0.2740    -2.3120 hn         1 BXH       0.407000
     13 HAO          0.4600     1.2270     1.9080 hc         1 BXH       0.096200
     14 HAF         -0.2170     1.8980     0.3910 hc         1 BXH       0.096200
     15 HAJ         -2.8640    -1.5800    -0.2400 h1         1 BXH       0.051200
     16 HAK         -3.6040    -0.6810     1.1110 h1         1 BXH       0.051200
     17 HAM         -5.0710    -0.6150    -0.9140 hc         1 BXH       0.047700
     18 HAN         -4.4980     1.0180    -0.5100 hc         1 BXH       0.047700
     19 HAL         -3.7580     0.1200    -1.8590 hc         1 BXH       0.047700
@<TRIPOS>BOND
     1     1     2 1   
     2     1     5 2   
     3     2     3 1   
     4     2    12 1   
     5     3     4 2   
     6     4     5 1   
     7     5     6 1   
     8     6     7 1   
     9     6    13 1   
    10     6    14 1   
    11     7     8 2   
    12     7     9 1   
    13     9    10 1   
    14    10    11 1   
    15    10    15 1   
    16    10    16 1   
    17    11    17 1   
    18    11    18 1   
    19    11    19 1   
@<TRIPOS>SUBSTRUCTURE
     1 BXH         1 TEMP              0 ****  ****    0 ROOT
