@<TRIPOS>MOLECULE
BXH
   19    19     1     0     0
SMALL
abcg2


@<TRIPOS>ATOM
      1 NAD          2.1350     0.1870    -1.1360 nc         1 BXH      -0.509800
      2 NAB          3.2570    -0.2420    -0.6270 na         1 BXH       0.115600
      3 NAA          3.2920    -0.2500     0.6690 nc         1 BXH      -0.169800
      4 NAC          2.1410     0.1920     1.0600 nd         1 BXH      -0.371000
      5 CAE          1.4370     0.4560    -0.0520 cd         1 BXH       0.503300
      6 CAF          0.0490     0.9730    -0.0600 c3         1 BXH      -0.157700
      7 CAG         -0.9650    -0.1470     0.0130 c          1 BXH       0.600100
      8 OAI         -0.6840    -1.3150     0.0850 o          1 BXH      -0.475000
      9 OAH         -2.1960     0.3290    -0.0110 os         1 BXH      -0.452100
     10 CAJ         -3.2880    -0.6080     0.0430 c3         1 BXH       0.169600
     11 CAK         -4.5710     0.1800    -0.0580 c3         1 BXH      -0.098100
     12 HAB          4.0430    -0.5380    -1.1920 hn         1 BXH       0.407000
     13 HAO         -0.1040     1.6460     0.7870 hc         1 BXH       0.096200
     14 HAF         -0.1300     1.5600    -0.9630 hc         1 BXH       0.096200
     15 HAJ         -3.2000    -1.3190    -0.7800 h1         1 BXH       0.051200
     16 HAK         -3.2410    -1.1660     0.9800 h1         1 BXH       0.051200
     17 HAM         -5.4150    -0.5080    -0.0200 hc         1 BXH       0.047700
     18 HAN         -4.6760     0.8840     0.7680 hc         1 BXH       0.047700
     19 HAL         -4.6300     0.7300    -0.9970 hc         1 BXH       0.047700
@<TRIPOS>BOND
     1     1     2 1   
     2     1     5 2   
     3     2     3 1   
     4     2    12 1   
     5     3     4 2   
     6     4     5 1   
     7     5     6 1   
     8     6     7 1   
     9     6    13 1   
    10     6    14 1   
    11     7     8 2   
    12     7     9 1   
    13     9    10 1   
    14    10    11 1   
    15    10    15 1   
    16    10    16 1   
    17    11    17 1   
    18    11    18 1   
    19    11    19 1   
@<TRIPOS>SUBSTRUCTURE
     1 BXH         1 TEMP              0 ****  ****    0 ROOT
