@<TRIPOS>MOLECULE
BXI
   61    65     1     0     0
SMALL
No Charge or Current Charge


@<TRIPOS>ATOM
      1 N1          -0.7050    -4.8800    20.1380 nc         1 BXI      -0.507800
      2 N3           4.0700    -1.6140    20.4430 nb         1 BXI      -0.223000
      3 C4          -3.7040    -3.5260    21.0480 c3         1 BXI       0.170000
      4 C5          -3.8630    -3.8890    19.5520 c3         1 BXI      -0.104600
      5 C6          -5.0220    -3.8080    21.8030 c3         1 BXI      -0.104600
      6 C7          -0.2800    -3.0800    21.5470 cc         1 BXI      -0.015000
      7 C8           5.2380    -1.6150    19.7740 ca         1 BXI       0.179900
      8 C10          6.7150    -2.5450    18.0510 ca         1 BXI      -0.045000
      9 C13          6.1480    -5.4950    15.5910 c6         1 BXI      -0.025400
     10 C15          5.3230    -6.4210    13.3570 c6         1 BXI       0.164800
     11 C17          4.9570   -10.3140    13.2630 cy         1 BXI       0.143600
     12 C20          6.0870    -6.9440    16.1430 c6         1 BXI      -0.070900
     13 C21          4.7290    -4.4190    17.4180 ca         1 BXI      -0.105000
     14 C22          4.4910    -3.4830    18.4380 ca         1 BXI       0.086000
     15 C11          6.9470    -3.4850    17.0320 ca         1 BXI       0.094000
     16 C12          5.9490    -4.4390    16.7020 ca         1 BXI      -0.020300
     17 C19          6.2680    -7.9800    15.0080 c6         1 BXI       0.164800
     18 N4           5.2520    -7.7920    13.9350 n3         1 BXI      -0.703600
     19 C16          5.3490    -8.8470    12.8840 cy         1 BXI       0.104500
     20 C18          4.1630    -9.0040    11.8750 cy         1 BXI       0.143600
     21 O1           4.4240   -10.4560    11.8950 oq         1 BXI      -0.447000
     22 C14          5.1150    -5.3390    14.4440 c6         1 BXI      -0.070900
     23 C9           5.4960    -2.5440    18.7490 ca         1 BXI      -0.199000
     24 N5           3.3250    -3.4730    19.1150 nb         1 BXI      -0.243000
     25 C            3.1720    -2.5450    20.0790 ca         1 BXI       0.391900
     26 N            1.9780    -2.5160    20.7880 nu         1 BXI      -0.891900
     27 C1           0.8090    -3.2680    20.7490 cd         1 BXI       0.208000
     28 Cl          -0.5060    -1.9020    22.8120 cl         1 BXI      -0.142000
     29 N2          -1.1890    -4.0600    21.1450 na         1 BXI       0.153800
     30 C2           0.4990    -4.3760    19.9080 cd         1 BXI       0.255900
     31 C3          -2.5290    -4.3070    21.7160 c3         1 BXI       0.057600
     32 O           -3.4600    -2.1170    21.1230 oh         1 BXI      -0.646000
     33 H1          -4.0130    -4.9680    19.4270 hc         1 BXI       0.048700
     34 H2          -4.7260    -3.3730    19.1150 hc         1 BXI       0.048700
     35 H3          -2.9760    -3.5970    18.9760 hc         1 BXI       0.048700
     36 H4          -5.2800    -4.8730    21.7490 hc         1 BXI       0.048700
     37 H5          -4.9390    -3.5350    22.8620 hc         1 BXI       0.048700
     38 H6          -5.8540    -3.2380    21.3700 hc         1 BXI       0.048700
     39 H7           5.9710    -0.8640    20.0640 h4         1 BXI       0.026100
     40 H8           7.4870    -1.8180    18.2950 ha         1 BXI       0.131000
     41 H9           7.1380    -5.3760    15.1360 hc         1 BXI       0.064700
     42 H10          6.2970    -6.2630    12.8710 h1         1 BXI       0.033700
     43 H11          4.5510    -6.2910    12.5840 h1         1 BXI       0.033700
     44 H13          5.7930   -10.9920    13.4670 h1         1 BXI       0.055700
     45 H14          5.1280    -7.1270    16.6440 hc         1 BXI       0.055450
     46 H15          6.8690    -7.0880    16.9010 hc         1 BXI       0.055450
     47 H16          3.9510    -5.1400    17.1830 ha         1 BXI       0.139000
     48 H17          6.1860    -8.9880    15.4410 h1         1 BXI       0.033700
     49 H18          7.2820    -7.8880    14.5930 h1         1 BXI       0.033700
     50 H20          6.3150    -8.8110    12.3650 h1         1 BXI       0.041700
     51 H21          4.3160    -8.5570    10.8870 h1         1 BXI       0.055700
     52 H22          3.1750    -8.7610    12.2850 h1         1 BXI       0.055700
     53 H23          5.2050    -4.3430    13.9920 hc         1 BXI       0.055450
     54 H24          4.0910    -5.4160    14.8320 hc         1 BXI       0.055450
     55 H25          1.9560    -1.7760    21.4930 hn         1 BXI       0.523000
     56 H26          1.1140    -4.8320    19.1450 h4         1 BXI       0.066100
     57 H27         -2.7350    -5.3820    21.6450 h1         1 BXI       0.071700
     58 H28         -2.4930    -4.0620    22.7840 h1         1 BXI       0.071700
     59 H29         -3.5130    -1.8570    22.0680 ho         1 BXI       0.441000
     60 Cl1          8.5060    -3.4160    16.2040 cl         1 BXI      -0.205000
     61 H12          4.1680   -10.3990    14.0190 h1         1 BXI       0.055700
@<TRIPOS>BOND
     1     1    29 1   
     2     1    30 2   
     3     2     7 ar  
     4     2    25 ar  
     5     3     4 1   
     6     3     5 1   
     7     3    31 1   
     8     3    32 1   
     9     4    33 1   
    10     4    34 1   
    11     4    35 1   
    12     5    36 1   
    13     5    37 1   
    14     5    38 1   
    15     6    27 2   
    16     6    28 1   
    17     6    29 1   
    18     7    23 ar  
    19     7    39 1   
    20     8    15 ar  
    21     8    23 ar  
    22     8    40 1   
    23     9    12 1   
    24     9    16 1   
    25     9    22 1   
    26     9    41 1   
    27    10    18 1   
    28    10    22 1   
    29    10    42 1   
    30    10    43 1   
    31    11    19 1   
    32    11    21 1   
    33    11    44 1   
    34    11    61 1   
    35    12    17 1   
    36    12    45 1   
    37    12    46 1   
    38    13    14 ar  
    39    13    16 ar  
    40    13    47 1   
    41    14    23 ar  
    42    14    24 ar  
    43    15    16 ar  
    44    15    60 1   
    45    17    18 1   
    46    17    48 1   
    47    17    49 1   
    48    18    19 1   
    49    19    20 1   
    50    19    50 1   
    51    20    21 1   
    52    20    51 1   
    53    20    52 1   
    54    22    53 1   
    55    22    54 1   
    56    24    25 ar  
    57    25    26 1   
    58    26    27 1   
    59    26    55 1   
    60    27    30 1   
    61    29    31 1   
    62    30    56 1   
    63    31    57 1   
    64    31    58 1   
    65    32    59 1   
@<TRIPOS>SUBSTRUCTURE
     1 BXI         1 TEMP              0 ****  ****    0 ROOT
