@<TRIPOS>MOLECULE
BXI
   61    65     1     0     0
SMALL
abcg2


@<TRIPOS>ATOM
      1 N1          -0.5440    -4.8470    20.5440 nc         1 BXI      -0.507800
      2 N3           3.8560    -1.2590    19.9850 nb         1 BXI      -0.223000
      3 C4          -3.5430    -3.6940    21.1950 c3         1 BXI       0.170000
      4 C5          -3.6480    -4.3950    19.8480 c3         1 BXI      -0.104600
      5 C6          -4.8060    -3.9420    22.0160 c3         1 BXI      -0.104600
      6 C7          -0.2780    -2.8870    21.5150 cc         1 BXI      -0.015000
      7 C8           4.9690    -1.3330    19.3220 ca         1 BXI       0.179900
      8 C10          6.4890    -2.5360    17.7650 ca         1 BXI      -0.045000
      9 C13          5.9620    -5.8100    15.8900 c6         1 BXI      -0.025400
     10 C15          6.0210    -6.5460    13.4930 c6         1 BXI       0.164800
     11 C17          4.5290    -9.9700    12.9020 cy         1 BXI       0.143600
     12 C20          5.1480    -7.0660    16.1830 c6         1 BXI      -0.070900
     13 C21          4.5530    -4.5330    17.5420 ca         1 BXI      -0.105000
     14 C22          4.3070    -3.4300    18.3840 ca         1 BXI       0.086000
     15 C11          6.6950    -3.6290    16.9700 ca         1 BXI       0.094000
     16 C12          5.7220    -4.6550    16.8260 ca         1 BXI      -0.020300
     17 C19          5.5020    -8.1580    15.1850 c6         1 BXI       0.164800
     18 N4           5.2450    -7.7300    13.8200 n3         1 BXI      -0.703600
     19 C16          5.5120    -8.7940    12.8870 cy         1 BXI       0.104500
     20 C18          4.9970    -8.5850    11.4580 cy         1 BXI       0.143600
     21 O1           4.1840    -9.7610    11.5280 oq         1 BXI      -0.447000
     22 C14          5.7030    -5.3970    14.4350 c6         1 BXI      -0.070900
     23 C9           5.2860    -2.4240    18.4780 ca         1 BXI      -0.199000
     24 N5           3.1520    -3.3530    19.0800 nb         1 BXI      -0.243000
     25 C            2.9860    -2.2980    19.8380 ca         1 BXI       0.391900
     26 N            1.8600    -2.1630    20.5780 nu         1 BXI      -0.891900
     27 C1           0.8200    -3.0660    20.7000 cd         1 BXI       0.208000
     28 CL          -0.6030    -1.5930    22.5680 cl         1 BXI      -0.142000
     29 N2          -1.0650    -3.9760    21.3970 na         1 BXI       0.153800
     30 C2           0.5890    -4.3230    20.1090 cd         1 BXI       0.255900
     31 C3          -2.3480    -4.2200    22.0140 c3         1 BXI       0.057600
     32 O           -3.3740    -2.3180    20.9170 oh         1 BXI      -0.646000
     33 H1          -3.7320    -5.4730    19.9820 hc         1 BXI       0.048700
     34 H2          -4.5360    -4.0520    19.3160 hc         1 BXI       0.048700
     35 H3          -2.7800    -4.2030    19.2170 hc         1 BXI       0.048700
     36 H4          -4.9480    -5.0050    22.2120 hc         1 BXI       0.048700
     37 H5          -4.7580    -3.4300    22.9800 hc         1 BXI       0.048700
     38 H6          -5.6840    -3.5790    21.4810 hc         1 BXI       0.048700
     39 H7           5.6740    -0.5140    19.4340 h4         1 BXI       0.026100
     40 H8           7.2420    -1.7630    17.8580 ha         1 BXI       0.131000
     41 H9           7.0190    -6.0900    15.9690 hc         1 BXI       0.064700
     42 H10          7.1060    -6.7530    13.5330 h1         1 BXI       0.033700
     43 H11          5.7980    -6.2410    12.4680 h1         1 BXI       0.033700
     44 H13          4.9630   -10.9570    13.0780 h1         1 BXI       0.055700
     45 H14          4.0760    -6.8620    16.1090 hc         1 BXI       0.055450
     46 H15          5.3420    -7.4260    17.1960 hc         1 BXI       0.055450
     47 H16          3.7850    -5.2920    17.4700 ha         1 BXI       0.139000
     48 H17          4.9020    -9.0460    15.4000 h1         1 BXI       0.033700
     49 H18          6.5590    -8.4500    15.3220 h1         1 BXI       0.033700
     50 H20          6.5660    -9.1160    12.9190 h1         1 BXI       0.041700
     51 H21          5.7460    -8.6420    10.6640 h1         1 BXI       0.055700
     52 H22          4.4040    -7.6750    11.3240 h1         1 BXI       0.055700
     53 H23          6.3070    -4.5330    14.1550 hc         1 BXI       0.055450
     54 H24          4.6540    -5.1060    14.3250 hc         1 BXI       0.055450
     55 H25          1.8120    -1.3210    21.1330 hn         1 BXI       0.523000
     56 H26          1.2050    -4.8510    19.4040 h4         1 BXI       0.066100
     57 H27         -2.4360    -5.2960    22.1630 h1         1 BXI       0.071700
     58 H28         -2.3450    -3.7560    23.0020 h1         1 BXI       0.071700
     59 H29         -3.4860    -1.8180    21.7340 ho         1 BXI       0.441000
     60 CL1          8.2110    -3.7450    16.1280 cl         1 BXI      -0.205000
     61 H12          3.6750    -9.8310    13.5740 h1         1 BXI       0.055700
@<TRIPOS>BOND
     1     1    29 1   
     2     1    30 2   
     3     2     7 ar  
     4     2    25 ar  
     5     3     4 1   
     6     3     5 1   
     7     3    31 1   
     8     3    32 1   
     9     4    33 1   
    10     4    34 1   
    11     4    35 1   
    12     5    36 1   
    13     5    37 1   
    14     5    38 1   
    15     6    27 2   
    16     6    28 1   
    17     6    29 1   
    18     7    23 ar  
    19     7    39 1   
    20     8    15 ar  
    21     8    23 ar  
    22     8    40 1   
    23     9    12 1   
    24     9    16 1   
    25     9    22 1   
    26     9    41 1   
    27    10    18 1   
    28    10    22 1   
    29    10    42 1   
    30    10    43 1   
    31    11    19 1   
    32    11    21 1   
    33    11    44 1   
    34    11    61 1   
    35    12    17 1   
    36    12    45 1   
    37    12    46 1   
    38    13    14 ar  
    39    13    16 ar  
    40    13    47 1   
    41    14    23 ar  
    42    14    24 ar  
    43    15    16 ar  
    44    15    60 1   
    45    17    18 1   
    46    17    48 1   
    47    17    49 1   
    48    18    19 1   
    49    19    20 1   
    50    19    50 1   
    51    20    21 1   
    52    20    51 1   
    53    20    52 1   
    54    22    53 1   
    55    22    54 1   
    56    24    25 ar  
    57    25    26 1   
    58    26    27 1   
    59    26    55 1   
    60    27    30 1   
    61    29    31 1   
    62    30    56 1   
    63    31    57 1   
    64    31    58 1   
    65    32    59 1   
@<TRIPOS>SUBSTRUCTURE
     1 BXI         1 TEMP              0 ****  ****    0 ROOT
