@<TRIPOS>MOLECULE
BXK
   37    36     1     0     0
SMALL
No Charge or Current Charge


@<TRIPOS>ATOM
      1 OAC         -4.5500    -1.3720     2.5200 o          1 BXK      -0.776000
      2 CAO         -4.4690    -1.6100     1.3250 c          1 BXK       0.711000
      3 OAG         -5.4100    -2.0110     0.6560 o          1 BXK      -0.776000
      4 CAJ         -3.1330    -1.3330     0.6120 c3         1 BXK      -0.195400
      5 CAK         -3.1020     0.1300     0.0910 c3         1 BXK      -0.044400
      6 CAU         -1.8330     0.4900    -0.7270 c3         1 BXK       0.049300
      7 CAQ         -1.9770     1.9100    -1.3910 c          1 BXK       0.713000
      8 OAI         -2.6940     2.0100    -2.3800 o          1 BXK      -0.740000
      9 OAE         -1.3550     2.8620    -0.9340 o          1 BXK      -0.740000
     10 OAN         -0.6930     0.3820     0.1720 os         1 BXK      -0.449100
     11 CAR          0.5600     0.3920    -0.3700 c          1 BXK       0.660100
     12 OAF          0.8270     0.4170    -1.5620 o          1 BXK      -0.580000
     13 N            1.4750     0.3060     0.6450 ns         1 BXK      -0.482900
     14 CA           2.9470     0.2210     0.4810 c3         1 BXK      -0.015300
     15 C            3.6600     1.1610     1.5070 c          1 BXK       0.704000
     16 O            3.4040     1.0340     2.6990 o          1 BXK      -0.731500
     17 OXT          4.3960     2.0370     1.0740 o          1 BXK      -0.731500
     18 CB           3.4590    -1.2410     0.6120 c3         1 BXK      -0.063400
     19 CG           3.0060    -2.2260    -0.5030 c3         1 BXK      -0.066700
     20 CD2          3.5800    -1.8600    -1.8940 c3         1 BXK      -0.077100
     21 CD1          3.3700    -3.6830    -0.1340 c3         1 BXK      -0.077100
     22 H2          -2.2980    -1.4250     1.3160 hc         1 BXK       0.013700
     23 H3          -3.0330    -1.9690    -0.2770 hc         1 BXK       0.013700
     24 H4          -3.9820     0.2910    -0.5430 hc         1 BXK       0.045700
     25 H5          -3.1960     0.8240     0.9350 hc         1 BXK       0.045700
     26 H6          -1.7400    -0.2420    -1.5400 h1         1 BXK       0.025700
     27 H8           1.0940     0.2990     1.5820 hn         1 BXK       0.294500
     28 H9           3.2070     0.5990    -0.5150 h1         1 BXK       0.049700
     29 H11          4.5560    -1.2250     0.6360 hc         1 BXK       0.031200
     30 H12          3.1390    -1.6310     1.5860 hc         1 BXK       0.031200
     31 H13          1.9120    -2.1820    -0.5730 hc         1 BXK       0.061700
     32 H14          4.6770    -1.8670    -1.8770 hc         1 BXK       0.015200
     33 H15          3.2460    -2.5800    -2.6500 hc         1 BXK       0.015200
     34 H16          3.2490    -0.8670    -2.2150 hc         1 BXK       0.015200
     35 H17          2.9130    -3.9670     0.8210 hc         1 BXK       0.015200
     36 H18          3.0090    -4.3790    -0.9010 hc         1 BXK       0.015200
     37 H19          4.4570    -3.8030    -0.0450 hc         1 BXK       0.015200
@<TRIPOS>BOND
     1     1     2 1   
     2     2     3 1   
     3     2     4 1   
     4     4     5 1   
     5     4    22 1   
     6     4    23 1   
     7     5     6 1   
     8     5    24 1   
     9     5    25 1   
    10     6     7 1   
    11     6    10 1   
    12     6    26 1   
    13     7     8 1   
    14     7     9 1   
    15    10    11 1   
    16    11    12 2   
    17    11    13 1   
    18    13    14 1   
    19    13    27 1   
    20    14    15 1   
    21    14    18 1   
    22    14    28 1   
    23    15    16 1   
    24    15    17 1   
    25    18    19 1   
    26    18    29 1   
    27    18    30 1   
    28    19    20 1   
    29    19    21 1   
    30    19    31 1   
    31    20    32 1   
    32    20    33 1   
    33    20    34 1   
    34    21    35 1   
    35    21    36 1   
    36    21    37 1   
@<TRIPOS>SUBSTRUCTURE
     1 BXK         1 TEMP              0 ****  ****    0 ROOT
