@<TRIPOS>MOLECULE
BXK
   37    36     1     0     0
SMALL
abcg2


@<TRIPOS>ATOM
      1 OAC         -4.5980    -3.1230     0.1540 o          1 BXK      -0.776000
      2 CAO         -4.5450    -1.8870     0.3290 c          1 BXK       0.711000
      3 OAG         -5.4240    -1.1810     0.8640 o          1 BXK      -0.776000
      4 CAJ         -3.2710    -1.1920    -0.1820 c3         1 BXK      -0.195400
      5 CAK         -3.1530     0.2890     0.1440 c3         1 BXK      -0.044400
      6 CAU         -1.9130     0.9490    -0.4460 c3         1 BXK       0.049300
      7 CAQ         -1.9030     2.4630    -0.1570 c          1 BXK       0.713000
      8 OAI         -2.7030     3.1300    -0.8460 o          1 BXK      -0.740000
      9 OAE         -1.1480     2.8760     0.7370 o          1 BXK      -0.740000
     10 OAN         -0.7820     0.2960     0.1290 os         1 BXK      -0.449100
     11 CAR          0.4070     0.5090    -0.4380 c          1 BXK       0.660100
     12 OAF          0.5720     1.1500    -1.4590 o          1 BXK      -0.580000
     13 N            1.3790    -0.1520     0.2170 ns         1 BXK      -0.482900
     14 CA           2.7740     0.0460    -0.0980 c3         1 BXK      -0.015300
     15 C            3.3260     1.4130     0.3780 c          1 BXK       0.704000
     16 O            2.6200     2.0880     1.1450 o          1 BXK      -0.731500
     17 OXT          4.4630     1.7020    -0.0520 o          1 BXK      -0.731500
     18 CB           3.5960    -1.0910     0.5070 c3         1 BXK      -0.063400
     19 CG           3.1950    -2.5020     0.0690 c3         1 BXK      -0.066700
     20 CD2          3.2700    -2.6730    -1.4440 c3         1 BXK      -0.077100
     21 CD1          4.0760    -3.5290     0.7730 c3         1 BXK      -0.077100
     22 H2          -2.4060    -1.7380     0.2060 hc         1 BXK       0.013700
     23 H3          -3.2280    -1.3290    -1.2700 hc         1 BXK       0.013700
     24 H4          -4.0190     0.8220    -0.2510 hc         1 BXK       0.045700
     25 H5          -3.1670     0.4440     1.2280 hc         1 BXK       0.045700
     26 H6          -1.9130     0.7930    -1.5300 h1         1 BXK       0.025700
     27 H8           1.1590    -0.5000     1.1380 hn         1 BXK       0.294500
     28 H9           2.8810     0.0070    -1.1850 h1         1 BXK       0.049700
     29 H11          4.6440    -0.9240     0.2460 hc         1 BXK       0.031200
     30 H12          3.5380    -1.0300     1.6010 hc         1 BXK       0.031200
     31 H13          2.1600    -2.6820     0.3800 hc         1 BXK       0.061700
     32 H14          4.2730    -2.4460    -1.8150 hc         1 BXK       0.015200
     33 H15          3.0350    -3.7000    -1.7330 hc         1 BXK       0.015200
     34 H16          2.5670    -2.0220    -1.9660 hc         1 BXK       0.015200
     35 H17          4.0010    -3.4390     1.8590 hc         1 BXK       0.015200
     36 H18          3.7920    -4.5480     0.5040 hc         1 BXK       0.015200
     37 H19          5.1270    -3.3970     0.5030 hc         1 BXK       0.015200
@<TRIPOS>BOND
     1     1     2 1   
     2     2     3 1   
     3     2     4 1   
     4     4     5 1   
     5     4    22 1   
     6     4    23 1   
     7     5     6 1   
     8     5    24 1   
     9     5    25 1   
    10     6     7 1   
    11     6    10 1   
    12     6    26 1   
    13     7     8 1   
    14     7     9 1   
    15    10    11 1   
    16    11    12 2   
    17    11    13 1   
    18    13    14 1   
    19    13    27 1   
    20    14    15 1   
    21    14    18 1   
    22    14    28 1   
    23    15    16 1   
    24    15    17 1   
    25    18    19 1   
    26    18    29 1   
    27    18    30 1   
    28    19    20 1   
    29    19    21 1   
    30    19    31 1   
    31    20    32 1   
    32    20    33 1   
    33    20    34 1   
    34    21    35 1   
    35    21    36 1   
    36    21    37 1   
@<TRIPOS>SUBSTRUCTURE
     1 BXK         1 TEMP              0 ****  ****    0 ROOT
