@<TRIPOS>MOLECULE
BXL
   48    49     1     0     0
SMALL
abcg2


@<TRIPOS>ATOM
      1 C1          -8.3140     1.4190     0.8380 ca         1 BXL      -0.083000
      2 N1          -5.3660    -0.6480     0.1670 ns         1 BXL      -0.152000
      3 O1          -3.4750     0.0680    -0.8800 o          1 BXL      -0.569100
      4 C2          -8.0180     2.6060     0.1790 ca         1 BXL      -0.138000
      5 N2           4.6490    -0.4890    -0.6420 ns         1 BXL      -0.180000
      6 O2           3.4640    -0.1080     1.2390 o          1 BXL      -0.567100
      7 C3          -6.8140     2.7120    -0.5020 ca         1 BXL      -0.083000
      8 N3           6.7250    -0.8530     1.2280 nv         1 BXL      -1.060000
      9 C4          -5.9060     1.6610    -0.5340 ca         1 BXL      -0.151500
     10 C5          -6.2040     0.4710     0.1330 ca         1 BXL      -0.017000
     11 C6          -7.4190     0.3640     0.8160 ca         1 BXL      -0.151500
     12 C7          -4.0970    -0.7980    -0.2940 c          1 BXL       0.608100
     13 C8          -3.5160    -2.1710     0.0010 c3         1 BXL      -0.125200
     14 C9          -2.1340    -2.3440    -0.5350 c2         1 BXL      -0.204200
     15 C10         -1.0680    -2.5620     0.2270 c2         1 BXL      -0.203200
     16 C11          0.3280    -2.7420    -0.2760 c3         1 BXL      -0.042200
     17 C12          1.2450    -1.6070     0.1810 c3         1 BXL      -0.064400
     18 C13          2.6920    -1.8470    -0.2270 c3         1 BXL      -0.157400
     19 C14          3.6170    -0.7300     0.2020 c          1 BXL       0.598100
     20 C15          5.6040     0.5310    -0.4120 ca         1 BXL      -0.122000
     21 C16          5.5180     1.7290    -1.1070 ca         1 BXL      -0.071000
     22 C17          6.4500     2.7370    -0.9170 ca         1 BXL      -0.153000
     23 C18          7.4770     2.5330    -0.0030 ca         1 BXL      -0.066000
     24 C19          7.5750     1.3430     0.6970 ca         1 BXL      -0.179000
     25 C20          6.6440     0.3140     0.5070 ca         1 BXL       0.309000
     26 H1          -9.2470     1.3110     1.3750 ha         1 BXL       0.112500
     27 HN1         -5.7520    -1.4450     0.6510 hn         1 BXL       0.146000
     28 H2          -8.7150     3.4330     0.1960 ha         1 BXL       0.115000
     29 HN2          4.6730    -0.9770    -1.5250 hn         1 BXL       0.147000
     30 H3          -6.5670     3.6280    -1.0240 ha         1 BXL       0.112500
     31 HN3          6.2770    -1.6560     0.8170 hn         1 BXL       0.449000
     32 HN3A         7.6380    -1.0750     1.5910 hn         1 BXL       0.449000
     33 H4          -4.9810     1.7780    -1.0750 ha         1 BXL       0.126500
     34 H6          -7.6630    -0.5550     1.3370 ha         1 BXL       0.126500
     35 H8          -3.5300    -2.3310     1.0840 hc         1 BXL       0.062200
     36 H8A         -4.1890    -2.9250    -0.4220 hc         1 BXL       0.062200
     37 H9          -2.0190    -2.3060    -1.6150 ha         1 BXL       0.182000
     38 H10         -1.1920    -2.5960     1.3070 ha         1 BXL       0.167000
     39 H11          0.7270    -3.6920     0.0960 hc         1 BXL       0.042700
     40 H11A         0.3320    -2.8050    -1.3680 hc         1 BXL       0.042700
     41 H12          0.8870    -0.6660    -0.2460 hc         1 BXL       0.061700
     42 H12A         1.1810    -1.5000     1.2660 hc         1 BXL       0.061700
     43 H13          3.0580    -2.7690     0.2370 hc         1 BXL       0.052200
     44 H13A         2.7600    -2.0070    -1.3060 hc         1 BXL       0.052200
     45 H16          4.7040     1.8610    -1.8100 ha         1 BXL       0.114000
     46 H17          6.3740     3.6650    -1.4680 ha         1 BXL       0.116000
     47 H18          8.2150     3.3070     0.1660 ha         1 BXL       0.111000
     48 H19          8.3850     1.1960     1.4020 ha         1 BXL       0.113000
@<TRIPOS>BOND
     1     1     4 ar  
     2     1    11 ar  
     3     1    26 1   
     4     2    10 1   
     5     2    12 1   
     6     2    27 1   
     7     3    12 2   
     8     4     7 ar  
     9     4    28 1   
    10     5    19 1   
    11     5    20 1   
    12     5    29 1   
    13     6    19 2   
    14     7     9 ar  
    15     7    30 1   
    16     8    25 1   
    17     8    31 1   
    18     8    32 1   
    19     9    10 ar  
    20     9    33 1   
    21    10    11 ar  
    22    11    34 1   
    23    12    13 1   
    24    13    14 1   
    25    13    35 1   
    26    13    36 1   
    27    14    15 2   
    28    14    37 1   
    29    15    16 1   
    30    15    38 1   
    31    16    17 1   
    32    16    39 1   
    33    16    40 1   
    34    17    18 1   
    35    17    41 1   
    36    17    42 1   
    37    18    19 1   
    38    18    43 1   
    39    18    44 1   
    40    20    21 ar  
    41    20    25 ar  
    42    21    22 ar  
    43    21    45 1   
    44    22    23 ar  
    45    22    46 1   
    46    23    24 ar  
    47    23    47 1   
    48    24    25 ar  
    49    24    48 1   
@<TRIPOS>SUBSTRUCTURE
     1 BXL         1 TEMP              0 ****  ****    0 ROOT
