@<TRIPOS>MOLECULE
BXL
   48    49     1     0     0
SMALL
No Charge or Current Charge


@<TRIPOS>ATOM
      1 C1          -5.4020     2.4800     1.5940 ca         1 BXL      -0.083000
      2 N1          -4.4580    -0.6790    -0.1310 ns         1 BXL      -0.152000
      3 O1          -4.4480    -1.0950    -2.4100 o          1 BXL      -0.569100
      4 C2          -5.8460     3.2810     0.5300 ca         1 BXL      -0.138000
      5 N2           3.7640    -0.3090    -0.2320 ns         1 BXL      -0.180000
      6 O2           3.4640    -1.3520     1.8140 o          1 BXL      -0.567100
      7 C3          -5.8350     2.7730    -0.7790 ca         1 BXL      -0.083000
      8 N3           5.9300    -0.0660     1.8090 nv         1 BXL      -1.060000
      9 C4          -5.3810     1.4650    -1.0260 ca         1 BXL      -0.151500
     10 C5          -4.9300     0.6520     0.0390 ca         1 BXL      -0.017000
     11 C6          -4.9480     1.1730     1.3470 ca         1 BXL      -0.151500
     12 C7          -4.2520    -1.4660    -1.2580 c          1 BXL       0.608100
     13 C8          -3.7220    -2.8770    -0.9520 c3         1 BXL      -0.125200
     14 C9          -2.2310    -3.0010    -1.2250 c2         1 BXL      -0.204200
     15 C10         -1.3000    -3.3060    -0.3080 c2         1 BXL      -0.203200
     16 C11          0.1850    -3.4270    -0.5800 c3         1 BXL      -0.042200
     17 C12          0.9960    -2.3300     0.1410 c3         1 BXL      -0.064400
     18 C13          2.5180    -2.4250    -0.1280 c3         1 BXL      -0.157400
     19 C14          3.2910    -1.3170     0.6010 c          1 BXL       0.598100
     20 C15          4.5630     0.8560     0.0010 ca         1 BXL      -0.122000
     21 C16          4.3270     1.9490    -0.8590 ca         1 BXL      -0.071000
     22 C17          5.0710     3.1330    -0.7410 ca         1 BXL      -0.153000
     23 C18          6.0760     3.2380     0.2300 ca         1 BXL      -0.066000
     24 C19          6.3380     2.1520     1.0790 ca         1 BXL      -0.179000
     25 C20          5.5960     0.9640     0.9740 ca         1 BXL       0.309000
     26 H1          -5.4110     2.8710     2.6100 ha         1 BXL       0.112500
     27 HN1         -4.2250    -1.1410     0.7390 hn         1 BXL       0.146000
     28 H2          -6.1980     4.2920     0.7190 ha         1 BXL       0.115000
     29 HN2          3.4810    -0.4160    -1.1970 hn         1 BXL       0.147000
     30 H3          -6.1810     3.3920    -1.6040 ha         1 BXL       0.112500
     31 HN3          5.1950    -0.7520     1.9910 hn         1 BXL       0.449000
     32 HN3A         6.5540     0.1260     2.5890 hn         1 BXL       0.449000
     33 H4          -5.3910     1.1050    -2.0490 ha         1 BXL       0.126500
     34 H6          -4.6070     0.5620     2.1810 ha         1 BXL       0.126500
     35 H8          -3.9170    -3.1170     0.1010 hc         1 BXL       0.062200
     36 H8A         -4.2580    -3.5920    -1.5880 hc         1 BXL       0.062200
     37 H9          -1.9450    -2.8160    -2.2640 ha         1 BXL       0.182000
     38 H10         -1.5830    -3.4940     0.7300 ha         1 BXL       0.167000
     39 H11          0.5400    -4.4130    -0.2560 hc         1 BXL       0.042700
     40 H11A         0.3810    -3.3640    -1.6580 hc         1 BXL       0.042700
     41 H12          0.6310    -1.3460    -0.1810 hc         1 BXL       0.061700
     42 H12A         0.8130    -2.3990     1.2210 hc         1 BXL       0.061700
     43 H13          2.8740    -3.3970     0.2340 hc         1 BXL       0.052200
     44 H13A         2.6860    -2.3490    -1.2090 hc         1 BXL       0.052200
     45 H16          3.5540     1.8820    -1.6220 ha         1 BXL       0.114000
     46 H17          4.8700     3.9700    -1.4070 ha         1 BXL       0.116000
     47 H18          6.6560     4.1550     0.3200 ha         1 BXL       0.111000
     48 H19          7.1290     2.2370     1.8190 ha         1 BXL       0.113000
@<TRIPOS>BOND
     1     1     4 ar  
     2     1    11 ar  
     3     1    26 1   
     4     2    10 1   
     5     2    12 1   
     6     2    27 1   
     7     3    12 2   
     8     4     7 ar  
     9     4    28 1   
    10     5    19 1   
    11     5    20 1   
    12     5    29 1   
    13     6    19 2   
    14     7     9 ar  
    15     7    30 1   
    16     8    25 1   
    17     8    31 1   
    18     8    32 1   
    19     9    10 ar  
    20     9    33 1   
    21    10    11 ar  
    22    11    34 1   
    23    12    13 1   
    24    13    14 1   
    25    13    35 1   
    26    13    36 1   
    27    14    15 2   
    28    14    37 1   
    29    15    16 1   
    30    15    38 1   
    31    16    17 1   
    32    16    39 1   
    33    16    40 1   
    34    17    18 1   
    35    17    41 1   
    36    17    42 1   
    37    18    19 1   
    38    18    43 1   
    39    18    44 1   
    40    20    21 ar  
    41    20    25 ar  
    42    21    22 ar  
    43    21    45 1   
    44    22    23 ar  
    45    22    46 1   
    46    23    24 ar  
    47    23    47 1   
    48    24    25 ar  
    49    24    48 1   
@<TRIPOS>SUBSTRUCTURE
     1 BXL         1 TEMP              0 ****  ****    0 ROOT
