@<TRIPOS>MOLECULE
BXM
   80    84     1     0     0
SMALL
No Charge or Current Charge


@<TRIPOS>ATOM
      1 C1         -43.2330    19.2920     9.0730 ca         1 BXM      -0.025800
      2 C11        -42.8450    17.9590     9.5780 cc         1 BXM      -0.096200
      3 C12        -42.1530    17.7500    10.8200 cc         1 BXM      -0.139000
      4 C13        -41.9310    16.4760    11.3040 cd         1 BXM       0.031800
      5 C14        -42.4230    15.2730    10.5350 c          1 BXM       0.525200
      6 C17        -43.3840    16.8620     8.9290 cd         1 BXM      -0.057400
      7 C2         -43.2650    19.6350     7.6860 ca         1 BXM      -0.049300
      8 C21        -44.4570    20.7530     4.8710 c          1 BXM       0.614700
      9 C23        -44.2830    21.4360     3.5260 ca         1 BXM      -0.159600
     10 C24        -44.9250    20.9070     2.3870 ca         1 BXM      -0.070500
     11 C26        -44.7840    21.5130     1.1270 ca         1 BXM      -0.119500
     12 C28        -43.9920    22.6740     0.9590 ca         1 BXM      -0.039300
     13 C29        -43.3500    23.1970     2.1030 ca         1 BXM      -0.119500
     14 C3         -42.6710    18.6970     6.6240 c3         1 BXM      -0.049800
     15 C31        -43.4890    22.5940     3.3650 ca         1 BXM      -0.070500
     16 C33        -43.8080    23.3760    -0.4140 c3         1 BXM      -0.008700
     17 C34        -44.5800    22.6740    -1.5670 c3         1 BXM      -0.083100
     18 C38        -44.3230    24.8380    -0.3150 c3         1 BXM      -0.083100
     19 C4         -43.7190    20.9290     7.3010 ca         1 BXM      -0.045000
     20 C42        -42.3000    23.3860    -0.7870 c3         1 BXM      -0.083100
     21 C46        -40.8520    16.9570    13.6020 ca         1 BXM       0.636900
     22 C49        -41.1150    18.8610    14.8730 ca         1 BXM       0.429900
     23 C5         -44.0550    21.8790     8.2770 ca         1 BXM      -0.130000
     24 C50        -40.1920    18.4190    15.8320 ca         1 BXM      -0.256600
     25 C51        -39.6090    17.1480    15.6660 ca         1 BXM      -0.009000
     26 C52        -39.9510    16.4120    14.5240 ca         1 BXM      -0.232000
     27 C7         -43.9770    21.5580     9.6360 ca         1 BXM      -0.100000
     28 C71        -39.9310    19.2850    17.0250 c          1 BXM       0.629700
     29 C81        -36.1700    18.7580    17.7160 c6         1 BXM       0.138100
     30 C82        -37.4230    19.1540    16.8920 c6         1 BXM       0.063000
     31 C84        -38.5300    19.7870    19.0420 c6         1 BXM       0.063000
     32 C85        -37.2290    19.3710    19.7750 c6         1 BXM       0.138100
     33 C9         -43.5740    20.2760    10.0270 ca         1 BXM      -0.100000
     34 N16        -43.1560    15.5550     9.3590 n          1 BXM      -0.253000
     35 N19        -43.8090    21.3450     5.9460 ns         1 BXM      -0.161000
     36 N47        -41.2250    16.2260    12.4860 nu         1 BXM      -0.786900
     37 N48        -41.4390    18.1470    13.7720 nb         1 BXM      -0.746000
     38 N83        -38.6930    19.1580    17.6920 n          1 BXM      -0.414800
     39 O15        -42.2100    14.1210    10.9110 o          1 BXM      -0.596000
     40 O22        -45.1480    19.7470     4.9970 o          1 BXM      -0.589100
     41 O72        -40.8130    20.0100    17.4670 o          1 BXM      -0.601100
     42 O86        -36.0880    19.5540    18.9140 os         1 BXM      -0.453000
     43 H1         -41.7740    18.6180    11.3460 ha         1 BXM       0.228000
     44 H2         -44.0330    16.9260     8.0630 h4         1 BXM       0.215000
     45 H3         -45.5440    20.0150     2.4720 ha         1 BXM       0.124000
     46 H4         -45.3050    21.0560     0.2910 ha         1 BXM       0.117500
     47 H5         -42.7300    24.0870     2.0240 ha         1 BXM       0.117500
     48 H6         -42.1930    19.2540     5.8100 hc         1 BXM       0.049700
     49 H7         -41.8850    18.0550     7.0390 hc         1 BXM       0.049700
     50 H8         -43.4360    18.0510     6.1790 hc         1 BXM       0.049700
     51 H9         -42.9670    23.0450     4.2060 ha         1 BXM       0.124000
     52 H10        -45.6590    22.6620    -1.3700 hc         1 BXM       0.037589
     53 H11        -44.4260    23.1990    -2.5170 hc         1 BXM       0.037589
     54 H12        -44.2370    21.6420    -1.7020 hc         1 BXM       0.037589
     55 H13        -43.7540    25.4200     0.4190 hc         1 BXM       0.037589
     56 H14        -44.2370    25.3510    -1.2810 hc         1 BXM       0.037589
     57 H15        -45.3780    24.8560    -0.0150 hc         1 BXM       0.037589
     58 H16        -41.7060    23.9500    -0.0580 hc         1 BXM       0.037589
     59 H17        -41.9050    22.3630    -0.8250 hc         1 BXM       0.037589
     60 H18        -42.1420    23.8470    -1.7690 hc         1 BXM       0.037589
     61 H19        -41.6090    19.8270    14.9730 h4         1 BXM       0.032100
     62 H20        -44.3810    22.8740     7.9810 ha         1 BXM       0.115000
     63 H21        -38.9270    16.7310    16.4060 ha         1 BXM       0.122000
     64 H22        -39.5210    15.4280    14.3600 ha         1 BXM       0.129000
     65 H23        -44.4220    13.8620     9.2040 h1         1 BXM       0.057700
     66 H24        -44.2060    14.7620     7.6780 h1         1 BXM       0.057700
     67 H25        -42.8850    13.7390     8.2990 h1         1 BXM       0.057700
     68 H26        -44.2440    22.2980    10.3870 ha         1 BXM       0.119000
     69 H28        -35.2620    18.9140    17.1160 h1         1 BXM       0.054700
     70 H29        -37.4960    18.4830    16.0280 h1         1 BXM       0.063450
     71 H30        -37.2660    20.1640    16.4880 h1         1 BXM       0.063450
     72 H31        -38.5380    20.8810    18.9270 h1         1 BXM       0.063450
     73 H32        -39.3890    19.5210    19.6740 h1         1 BXM       0.063450
     74 H33        -37.0990    19.9770    20.6820 h1         1 BXM       0.054700
     75 H34        -37.2900    18.3150    20.0760 h1         1 BXM       0.054700
     76 H35        -43.5590    20.0410    11.0890 ha         1 BXM       0.123000
     77 H36        -43.3330    22.2120     5.7390 hn         1 BXM       0.153000
     78 H37        -40.9810    15.2410    12.5920 hn         1 BXM       0.525000
     79 C60        -43.7010    14.4140     8.5870 c3         1 BXM       0.080300
     80 H27        -36.2200    17.6940    17.9880 h1         1 BXM       0.054700
@<TRIPOS>BOND
     1     1     2 1   
     2     1     7 ar  
     3     1    33 ar  
     4     2     3 1   
     5     2     6 2   
     6     3     4 2   
     7     3    43 1   
     8     4     5 1   
     9     4    36 1   
    10     5    34 1   
    11     5    39 2   
    12     6    34 1   
    13     6    44 1   
    14     7    14 1   
    15     7    19 ar  
    16     8     9 1   
    17     8    35 1   
    18     8    40 2   
    19     9    10 ar  
    20     9    15 ar  
    21    10    11 ar  
    22    10    45 1   
    23    11    12 ar  
    24    11    46 1   
    25    12    13 ar  
    26    12    16 1   
    27    13    15 ar  
    28    13    47 1   
    29    14    48 1   
    30    14    49 1   
    31    14    50 1   
    32    15    51 1   
    33    16    17 1   
    34    16    18 1   
    35    16    20 1   
    36    17    52 1   
    37    17    53 1   
    38    17    54 1   
    39    18    55 1   
    40    18    56 1   
    41    18    57 1   
    42    19    23 ar  
    43    19    35 1   
    44    20    58 1   
    45    20    59 1   
    46    20    60 1   
    47    21    26 ar  
    48    21    36 1   
    49    21    37 ar  
    50    22    24 ar  
    51    22    37 ar  
    52    22    61 1   
    53    23    27 ar  
    54    23    62 1   
    55    24    25 ar  
    56    24    28 1   
    57    25    26 ar  
    58    25    63 1   
    59    26    64 1   
    60    27    33 ar  
    61    27    68 1   
    62    28    38 1   
    63    28    41 2   
    64    29    30 1   
    65    29    42 1   
    66    29    69 1   
    67    29    80 1   
    68    30    38 1   
    69    30    70 1   
    70    30    71 1   
    71    31    32 1   
    72    31    38 1   
    73    31    72 1   
    74    31    73 1   
    75    32    42 1   
    76    32    74 1   
    77    32    75 1   
    78    33    76 1   
    79    34    79 1   
    80    35    77 1   
    81    36    78 1   
    82    65    79 1   
    83    66    79 1   
    84    67    79 1   
@<TRIPOS>SUBSTRUCTURE
     1 BXM         1 TEMP              0 ****  ****    0 ROOT
