@<TRIPOS>MOLECULE
BXM
   80    84     1     0     0
SMALL
abcg2


@<TRIPOS>ATOM
      1 C1         -44.0570    18.8470     9.1990 ca         1 BXM      -0.025800
      2 C11        -43.4980    17.5610     9.6840 cc         1 BXM      -0.096200
      3 C12        -42.8070    17.5080    10.9230 cc         1 BXM      -0.139000
      4 C13        -42.3000    16.3230    11.3900 cd         1 BXM       0.031800
      5 C14        -42.4770    15.0950    10.6290 c          1 BXM       0.525200
      6 C17        -43.6590    16.4040     8.9820 cd         1 BXM      -0.057400
      7 C2         -43.7670    19.3490     7.9150 ca         1 BXM      -0.049300
      8 C21        -44.4400    20.5440     5.0720 c          1 BXM       0.614700
      9 C23        -44.1000    21.3310     3.8490 ca         1 BXM      -0.159600
     10 C24        -44.8120    21.0820     2.6780 ca         1 BXM      -0.070500
     11 C26        -44.5320    21.7850     1.5130 ca         1 BXM      -0.119500
     12 C28        -43.5230    22.7490     1.4700 ca         1 BXM      -0.039300
     13 C29        -42.8040    22.9810     2.6500 ca         1 BXM      -0.119500
     14 C3         -42.7880    18.6680     7.0000 c3         1 BXM      -0.049800
     15 C31        -43.0850    22.2920     3.8190 ca         1 BXM      -0.070500
     16 C33        -43.1810    23.5380     0.2050 c3         1 BXM      -0.008700
     17 C34        -44.0740    23.1550    -0.9820 c3         1 BXM      -0.083100
     18 C38        -43.3630    25.0430     0.4810 c3         1 BXM      -0.083100
     19 C4         -44.3660    20.5610     7.5350 ca         1 BXM      -0.045000
     20 C42        -41.7150    23.2630    -0.1820 c3         1 BXM      -0.083100
     21 C46        -41.1340    16.9820    13.5090 ca         1 BXM       0.636900
     22 C49        -41.0690    19.0860    14.4190 ca         1 BXM       0.429900
     23 C5         -45.1730    21.2810     8.4130 ca         1 BXM      -0.130000
     24 C50        -40.2080    18.7050    15.4370 ca         1 BXM      -0.256600
     25 C51        -39.8160    17.3590    15.4760 ca         1 BXM      -0.009000
     26 C52        -40.2840    16.4880    14.5220 ca         1 BXM      -0.232000
     27 C7         -45.4120    20.7970     9.6900 ca         1 BXM      -0.100000
     28 C71        -39.8220    19.7010    16.4790 c          1 BXM       0.629700
     29 C81        -36.3210    18.7540    16.8000 c6         1 BXM       0.138100
     30 C82        -37.3940    19.3960    15.9370 c6         1 BXM       0.063000
     31 C84        -38.0850    20.7090    17.8680 c6         1 BXM       0.063000
     32 C85        -36.9800    20.0290    18.6620 c6         1 BXM       0.138100
     33 C9         -44.8650    19.5810    10.0720 ca         1 BXM      -0.100000
     34 N16        -43.1660    15.2150     9.4430 n          1 BXM      -0.253000
     35 N19        -44.1150    21.1290     6.2590 ns         1 BXM      -0.161000
     36 N47        -41.5760    16.1090    12.5490 nu         1 BXM      -0.786900
     37 N48        -41.5160    18.2630    13.4680 nb         1 BXM      -0.746000
     38 N83        -38.5070    19.8340    16.7780 n          1 BXM      -0.414800
     39 O15        -42.0340    13.9970    11.0120 o          1 BXM      -0.596000
     40 O22        -44.9780    19.4410     5.0050 o          1 BXM      -0.589100
     41 O72        -40.6990    20.3540    17.0560 o          1 BXM      -0.601100
     42 O86        -35.8900    19.6460    17.8260 os         1 BXM      -0.453000
     43 H1         -42.6640    18.4090    11.4950 ha         1 BXM       0.228000
     44 H2         -44.1850    16.3570     8.0420 h4         1 BXM       0.215000
     45 H3         -45.5950    20.3360     2.6870 ha         1 BXM       0.124000
     46 H4         -45.1160    21.5680     0.6300 ha         1 BXM       0.117500
     47 H5         -42.0040    23.7090     2.6590 ha         1 BXM       0.117500
     48 H6         -42.2720    19.4040     6.3820 hc         1 BXM       0.049700
     49 H7         -42.0480    18.1100     7.5710 hc         1 BXM       0.049700
     50 H8         -43.2850    17.9730     6.3220 hc         1 BXM       0.049700
     51 H9         -42.4870    22.4900     4.6990 ha         1 BXM       0.124000
     52 H10        -45.1270    23.3500    -0.7730 hc         1 BXM       0.037589
     53 H11        -43.7880    23.7490    -1.8520 hc         1 BXM       0.037589
     54 H12        -43.9650    22.1020    -1.2460 hc         1 BXM       0.037589
     55 H13        -42.7130    25.3850     1.2870 hc         1 BXM       0.037589
     56 H14        -43.1200    25.6170    -0.4160 hc         1 BXM       0.037589
     57 H15        -44.3960    25.2620     0.7590 hc         1 BXM       0.037589
     58 H16        -41.0280    23.5620     0.6100 hc         1 BXM       0.037589
     59 H17        -41.5630    22.2000    -0.3830 hc         1 BXM       0.037589
     60 H18        -41.4580    23.8220    -1.0840 hc         1 BXM       0.037589
     61 H19        -41.4100    20.1140    14.3590 h4         1 BXM       0.032100
     62 H20        -45.6080    22.2160     8.0830 ha         1 BXM       0.115000
     63 H21        -39.1590    17.0020    16.2590 ha         1 BXM       0.122000
     64 H22        -40.0060    15.4420    14.5340 ha         1 BXM       0.129000
     65 H23        -43.9170    13.2630     9.2460 h1         1 BXM       0.057700
     66 H24        -43.9060    14.2410     7.7580 h1         1 BXM       0.057700
     67 H25        -42.3910    13.5640     8.4020 h1         1 BXM       0.057700
     68 H26        -46.0360    21.3550    10.3760 ha         1 BXM       0.119000
     69 H28        -35.4440    18.5180    16.1980 h1         1 BXM       0.054700
     70 H29        -37.7360    18.7010    15.1780 h1         1 BXM       0.063450
     71 H30        -36.9750    20.2730    15.4320 h1         1 BXM       0.063450
     72 H31        -37.7210    21.6560    17.4550 h1         1 BXM       0.063450
     73 H32        -38.9400    20.9150    18.5070 h1         1 BXM       0.063450
     74 H33        -36.5790    20.7120    19.4100 h1         1 BXM       0.054700
     75 H34        -37.3840    19.1420    19.1680 h1         1 BXM       0.054700
     76 H35        -45.0680    19.1850    11.0590 ha         1 BXM       0.123000
     77 H36        -43.9060    22.1160     6.2450 hn         1 BXM       0.153000
     78 H37        -41.2830    15.1440    12.6410 hn         1 BXM       0.525000
     79 C60        -43.3580    13.9920     8.6620 c3         1 BXM       0.080300
     80 H27        -36.7080    17.8310    17.2500 h1         1 BXM       0.054700
@<TRIPOS>BOND
     1     1     2 1   
     2     1     7 ar  
     3     1    33 ar  
     4     2     3 1   
     5     2     6 2   
     6     3     4 2   
     7     3    43 1   
     8     4     5 1   
     9     4    36 1   
    10     5    34 1   
    11     5    39 2   
    12     6    34 1   
    13     6    44 1   
    14     7    14 1   
    15     7    19 ar  
    16     8     9 1   
    17     8    35 1   
    18     8    40 2   
    19     9    10 ar  
    20     9    15 ar  
    21    10    11 ar  
    22    10    45 1   
    23    11    12 ar  
    24    11    46 1   
    25    12    13 ar  
    26    12    16 1   
    27    13    15 ar  
    28    13    47 1   
    29    14    48 1   
    30    14    49 1   
    31    14    50 1   
    32    15    51 1   
    33    16    17 1   
    34    16    18 1   
    35    16    20 1   
    36    17    52 1   
    37    17    53 1   
    38    17    54 1   
    39    18    55 1   
    40    18    56 1   
    41    18    57 1   
    42    19    23 ar  
    43    19    35 1   
    44    20    58 1   
    45    20    59 1   
    46    20    60 1   
    47    21    26 ar  
    48    21    36 1   
    49    21    37 ar  
    50    22    24 ar  
    51    22    37 ar  
    52    22    61 1   
    53    23    27 ar  
    54    23    62 1   
    55    24    25 ar  
    56    24    28 1   
    57    25    26 ar  
    58    25    63 1   
    59    26    64 1   
    60    27    33 ar  
    61    27    68 1   
    62    28    38 1   
    63    28    41 2   
    64    29    30 1   
    65    29    42 1   
    66    29    69 1   
    67    29    80 1   
    68    30    38 1   
    69    30    70 1   
    70    30    71 1   
    71    31    32 1   
    72    31    38 1   
    73    31    72 1   
    74    31    73 1   
    75    32    42 1   
    76    32    74 1   
    77    32    75 1   
    78    33    76 1   
    79    34    79 1   
    80    35    77 1   
    81    36    78 1   
    82    65    79 1   
    83    66    79 1   
    84    67    79 1   
@<TRIPOS>SUBSTRUCTURE
     1 BXM         1 TEMP              0 ****  ****    0 ROOT
