@<TRIPOS>MOLECULE
BXN
   66    69     1     0     0
SMALL
bcc


@<TRIPOS>ATOM
      1 C10         -4.9250    -0.6100    -2.2950 c3         1 BXN       0.217100
      2 C15         -1.5250    -2.2090    -0.2260 ca         1 BXN       0.120400
      3 C17         -0.1840    -2.3660     0.0670 ca         1 BXN      -0.156500
      4 C21          4.1290    -0.8040     1.0250 c3         1 BXN       0.169800
      5 C24          5.7550     1.3820    -1.5550 c6         1 BXN       0.171800
      6 C26          8.1210     0.7540    -1.3200 c5         1 BXN       0.161800
      7 C28          8.4180     1.6310     0.9390 c5         1 BXN      -0.077400
      8 C02         -4.4400     2.0700    -0.3380 cc         1 BXN       0.356600
      9 C06         -2.4180     1.5190    -1.0970 cd         1 BXN      -0.048600
     10 C07         -1.2020     0.8790    -1.6560 c3         1 BXN      -0.034800
     11 C08         -3.6830     1.0040    -0.8700 cc         1 BXN      -0.120700
     12 C14         -2.3600    -1.4000     0.5560 ca         1 BXN      -0.241500
     13 C18          0.3860    -1.6970     1.1410 ca         1 BXN      -0.012300
     14 C19          1.8520    -1.8130     1.4290 c3         1 BXN      -0.043100
     15 C23          5.0370     0.1600    -0.9950 c6         1 BXN       0.125800
     16 C27          9.1070     0.7780    -0.1390 c5         1 BXN      -0.084400
     17 C29          6.9500     1.6210     0.5300 c5         1 BXN       0.174500
     18 C30          6.2040     0.4020     1.0690 c6         1 BXN       0.136800
     19 C31         -0.4120    -0.8440     1.8870 ca         1 BXN      -0.156500
     20 C32         -1.7600    -0.6890     1.6010 ca         1 BXN       0.120400
     21 N03         -3.6880     3.1470    -0.2480 nd         1 BXN      -0.523800
     22 N04         -2.4790     2.8000    -0.7070 na         1 BXN       0.117400
     23 N09         -4.0820    -0.3200    -1.1380 nh         1 BXN      -0.612900
     24 N22          4.8970     0.2810     0.4460 n3         1 BXN      -0.716600
     25 N25          7.0300     1.6390    -0.9230 n3         1 BXN      -0.719600
     26 O12         -4.5720    -2.6240    -0.2480 o          1 BXN      -0.602300
     27 O13         -4.7930    -0.7150     1.3050 o          1 BXN      -0.602300
     28 S11         -4.1110    -1.3160     0.1780 sy         1 BXN       1.329200
     29 CL2         -2.5860     0.4770     2.5660 cl         1 BXN      -0.058400
     30 H1          -4.5210    -0.0540    -3.1370 h1         1 BXN       0.049367
     31 H2          -4.8840    -1.6670    -2.5410 h1         1 BXN       0.049367
     32 H3          -5.9670    -0.3190    -2.1470 h1         1 BXN       0.049367
     33 H4           0.4260    -3.0050    -0.5580 ha         1 BXN       0.151500
     34 H5           2.2690     0.2660     1.0140 hc         1 BXN       0.050700
     35 H6           2.4630    -0.8040    -0.3650 hc         1 BXN       0.050700
     36 H7           4.2520    -0.7570     2.1110 h1         1 BXN       0.031200
     37 H8           4.5160    -1.7900     0.7120 h1         1 BXN       0.031200
     38 H10          5.1100     2.2560    -1.4160 h1         1 BXN       0.057200
     39 H11          8.5720     1.1140    -2.2490 h1         1 BXN       0.035200
     40 H12          7.7890    -0.2750    -1.5140 h1         1 BXN       0.035200
     41 H13          8.5750     1.2460     1.9470 hc         1 BXN       0.051700
     42 H14          8.7940     2.6550     0.9200 hc         1 BXN       0.051700
     43 H21         -0.7580     1.4840    -2.4480 hc         1 BXN       0.055367
     44 H22         -0.4380     0.7260    -0.8910 hc         1 BXN       0.055367
     45 H23         -1.4530    -0.0880    -2.0830 hc         1 BXN       0.055367
     46 H24          2.2140    -2.7940     1.1130 hc         1 BXN       0.056200
     47 H25          2.0200    -1.7430     2.5060 hc         1 BXN       0.056200
     48 H26          4.0510     0.0930    -1.4590 h1         1 BXN       0.033200
     49 H27          5.5760    -0.7640    -1.2700 h1         1 BXN       0.033200
     50 H28          9.2940    -0.2320     0.2250 hc         1 BXN       0.045200
     51 H29         10.0730     1.1960    -0.4220 hc         1 BXN       0.045200
     52 H30          6.4250     2.5190     0.8730 h1         1 BXN       0.077700
     53 H31          6.8140    -0.5110     0.9270 h1         1 BXN       0.035200
     54 H32          6.0700     0.5190     2.1480 h1         1 BXN       0.035200
     55 H33          0.0190    -0.2820     2.7060 ha         1 BXN       0.151500
     56 CL1         -2.0790    -2.9820    -1.6670 cl         1 BXN      -0.058400
     57 C20          2.6410    -0.7170     0.7100 c3         1 BXN      -0.075400
     58 C01         -5.8660     2.0810     0.0870 c3         1 BXN      -0.125400
     59 C05         -1.3990     3.7550    -0.6710 c3         1 BXN       0.040600
     60 H9           5.9010     1.2660    -2.6320 h1         1 BXN       0.057200
     61 H15         -5.9750     1.7270     1.1120 hc         1 BXN       0.055700
     62 H16         -6.2740     3.0900     0.0370 hc         1 BXN       0.055700
     63 H17         -6.4770     1.4380    -0.5430 hc         1 BXN       0.055700
     64 H18         -0.8020     3.6430     0.2340 h1         1 BXN       0.058367
     65 H19         -0.7520     3.6270    -1.5350 h1         1 BXN       0.058367
     66 H20         -1.8190     4.7560    -0.6960 h1         1 BXN       0.058367
@<TRIPOS>BOND
     1     1    23 1   
     2     1    30 1   
     3     1    31 1   
     4     1    32 1   
     5     2     3 ar  
     6     2    12 ar  
     7     2    56 1   
     8     3    13 ar  
     9     3    33 1   
    10     4    24 1   
    11     4    36 1   
    12     4    37 1   
    13     4    57 1   
    14     5    15 1   
    15     5    25 1   
    16     5    38 1   
    17     5    60 1   
    18     6    16 1   
    19     6    25 1   
    20     6    39 1   
    21     6    40 1   
    22     7    16 1   
    23     7    17 1   
    24     7    41 1   
    25     7    42 1   
    26     8    11 1   
    27     8    21 2   
    28     8    58 1   
    29     9    10 1   
    30     9    11 2   
    31     9    22 1   
    32    10    43 1   
    33    10    44 1   
    34    10    45 1   
    35    11    23 1   
    36    12    20 ar  
    37    12    28 1   
    38    13    14 1   
    39    13    19 ar  
    40    14    46 1   
    41    14    47 1   
    42    14    57 1   
    43    15    24 1   
    44    15    48 1   
    45    15    49 1   
    46    16    50 1   
    47    16    51 1   
    48    17    18 1   
    49    17    25 1   
    50    17    52 1   
    51    18    24 1   
    52    18    53 1   
    53    18    54 1   
    54    19    20 ar  
    55    19    55 1   
    56    20    29 1   
    57    21    22 1   
    58    22    59 1   
    59    23    28 1   
    60    26    28 2   
    61    27    28 2   
    62    34    57 1   
    63    35    57 1   
    64    58    61 1   
    65    58    62 1   
    66    58    63 1   
    67    59    64 1   
    68    59    65 1   
    69    59    66 1   
@<TRIPOS>SUBSTRUCTURE
     1 BXN         1 TEMP              0 ****  ****    0 ROOT
