@<TRIPOS>MOLECULE
BXN
   66    69     1     0     0
SMALL
No Charge or Current Charge


@<TRIPOS>ATOM
      1 C10         -5.0200    -0.4680    -2.3510 c3         1 BXN       0.217100
      2 C15         -1.6270    -2.3720    -0.1560 ca         1 BXN       0.212000
      3 C17         -0.2670    -2.4590     0.1870 ca         1 BXN      -0.138500
      4 C21          4.0530    -0.7160     1.1500 c3         1 BXN       0.169800
      5 C24          5.6380     1.7010    -1.4610 c6         1 BXN       0.171800
      6 C26          7.9520     0.6960    -1.3490 c5         1 BXN       0.161800
      7 C28          8.5750     1.6510     0.8440 c5         1 BXN      -0.077400
      8 C02         -4.1810     2.0940    -0.3520 cc         1 BXN       0.291300
      9 C06         -2.2580     1.3120    -1.1510 cd         1 BXN      -0.099300
     10 C07         -1.1240     0.5460    -1.7890 c3         1 BXN      -0.034800
     11 C08         -3.5490     0.9480    -0.9100 cc         1 BXN       0.083000
     12 C14         -2.5040    -1.5270     0.5760 ca         1 BXN      -0.241500
     13 C18          0.2590    -1.7080     1.2440 ca         1 BXN      -0.012300
     14 C19          1.7420    -1.7730     1.5770 c3         1 BXN      -0.043100
     15 C23          4.8190     0.4900    -0.9050 c6         1 BXN       0.125800
     16 C27          9.1500     0.8460    -0.3670 c5         1 BXN      -0.084400
     17 C29          7.0450     1.6830     0.5880 c5         1 BXN       0.174500
     18 C30          6.2420     0.4300     1.1040 c6         1 BXN       0.136800
     19 C31         -0.5920    -0.8550     1.9560 ca         1 BXN      -0.138500
     20 C32         -1.9550    -0.7530     1.6340 ca         1 BXN       0.212000
     21 N03         -3.3690     3.1220    -0.2000 nd         1 BXN      -0.523800
     22 N04         -2.1650     2.6310    -0.6870 na         1 BXN       0.138800
     23 N09         -4.1260    -0.2830    -1.1970 nh         1 BXN      -0.751300
     24 N22          4.8320     0.4180     0.5950 n3         1 BXN      -0.716600
     25 N25          7.0190     1.7580    -0.9000 n3         1 BXN      -0.719600
     26 O12         -4.7290    -2.6570    -0.4760 o          1 BXN      -0.531500
     27 O13         -5.0830    -0.7250     1.1300 o          1 BXN      -0.531500
     28 S11         -4.2680    -1.3900     0.1020 sy         1 BXN       1.187600
     29 Cl2         -2.8620     0.4180     2.5930 cl         1 BXN      -0.150000
     30 H1          -4.9710     0.4020    -3.0190 h1         1 BXN       0.049367
     31 H2          -4.7250    -1.3560    -2.9260 h1         1 BXN       0.049367
     32 H3          -6.0610    -0.5920    -2.0240 h1         1 BXN       0.049367
     33 H4           0.3890    -3.1030    -0.3950 ha         1 BXN       0.133500
     34 H5           2.1430     0.3100     1.1320 hc         1 BXN       0.050700
     35 H6           2.3740    -0.7830    -0.2340 hc         1 BXN       0.050700
     36 H7           4.1680    -0.7250     2.2420 h1         1 BXN       0.031200
     37 H8           4.4590    -1.6670     0.7780 h1         1 BXN       0.031200
     38 H10          5.1000     2.6240    -1.2000 h1         1 BXN       0.057200
     39 H11          8.2590     0.8330    -2.3950 h1         1 BXN       0.035200
     40 H12          7.5070    -0.3050    -1.2660 h1         1 BXN       0.035200
     41 H13          8.8250     1.1970     1.8090 hc         1 BXN       0.051700
     42 H14          8.9810     2.6690     0.8560 hc         1 BXN       0.051700
     43 H21         -0.6260     1.1470    -2.5590 hc         1 BXN       0.055367
     44 H22         -0.3710     0.2640    -1.0450 hc         1 BXN       0.055367
     45 H23         -1.4840    -0.3680    -2.2730 hc         1 BXN       0.055367
     46 H24          2.1490    -2.7550     1.3060 hc         1 BXN       0.056200
     47 H25          1.8890    -1.6670     2.6590 hc         1 BXN       0.056200
     48 H26          3.7900     0.5850    -1.2800 h1         1 BXN       0.033200
     49 H27          5.2260    -0.4400    -1.3280 h1         1 BXN       0.033200
     50 H28          9.5340    -0.1350    -0.0630 hc         1 BXN       0.045200
     51 H29          9.9820     1.3840    -0.8340 hc         1 BXN       0.045200
     52 H30          6.5910     2.5740     1.0440 h1         1 BXN       0.077700
     53 H31          6.7570    -0.4960     0.8100 h1         1 BXN       0.035200
     54 H32          6.2440     0.4490     2.2040 h1         1 BXN       0.035200
     55 H33         -0.1900    -0.2470     2.7630 ha         1 BXN       0.133500
     56 Cl1         -2.1060    -3.3070    -1.5760 cl         1 BXN      -0.150000
     57 C20          2.5380    -0.6720     0.8440 c3         1 BXN      -0.075400
     58 C01         -5.6370     2.1690     0.0260 c3         1 BXN      -0.125400
     59 C05         -0.9610     3.4760    -0.6940 c3         1 BXN       0.069900
     60 H9           5.6660     1.6490    -2.5590 h1         1 BXN       0.057200
     61 H15         -5.7670     1.9690     1.0950 hc         1 BXN       0.055700
     62 H16         -6.0420     3.1660    -0.1820 hc         1 BXN       0.055700
     63 H17         -6.2380     1.4450    -0.5320 hc         1 BXN       0.055700
     64 H18         -0.1350     2.9370    -0.2150 h1         1 BXN       0.058367
     65 H19         -0.6890     3.7130    -1.7290 h1         1 BXN       0.058367
     66 H20         -1.1510     4.4060    -0.1470 h1         1 BXN       0.058367
@<TRIPOS>BOND
     1     1    23 1   
     2     1    30 1   
     3     1    31 1   
     4     1    32 1   
     5     2     3 ar  
     6     2    12 ar  
     7     2    56 1   
     8     3    13 ar  
     9     3    33 1   
    10     4    24 1   
    11     4    36 1   
    12     4    37 1   
    13     4    57 1   
    14     5    15 1   
    15     5    25 1   
    16     5    38 1   
    17     5    60 1   
    18     6    16 1   
    19     6    25 1   
    20     6    39 1   
    21     6    40 1   
    22     7    16 1   
    23     7    17 1   
    24     7    41 1   
    25     7    42 1   
    26     8    11 1   
    27     8    21 2   
    28     8    58 1   
    29     9    10 1   
    30     9    11 2   
    31     9    22 1   
    32    10    43 1   
    33    10    44 1   
    34    10    45 1   
    35    11    23 1   
    36    12    20 ar  
    37    12    28 1   
    38    13    14 1   
    39    13    19 ar  
    40    14    46 1   
    41    14    47 1   
    42    14    57 1   
    43    15    24 1   
    44    15    48 1   
    45    15    49 1   
    46    16    50 1   
    47    16    51 1   
    48    17    18 1   
    49    17    25 1   
    50    17    52 1   
    51    18    24 1   
    52    18    53 1   
    53    18    54 1   
    54    19    20 ar  
    55    19    55 1   
    56    20    29 1   
    57    21    22 1   
    58    22    59 1   
    59    23    28 1   
    60    26    28 2   
    61    27    28 2   
    62    34    57 1   
    63    35    57 1   
    64    58    61 1   
    65    58    62 1   
    66    58    63 1   
    67    59    64 1   
    68    59    65 1   
    69    59    66 1   
@<TRIPOS>SUBSTRUCTURE
     1 BXN         1 TEMP              0 ****  ****    0 ROOT
