@<TRIPOS>MOLECULE
BXO
   15    14     1     0     0
SMALL
bcc


@<TRIPOS>ATOM
      1 C4           2.8740     0.4260    -0.0950 c3         1 BXO      -0.090100
      2 C3           1.6920    -0.4290     0.3340 c3         1 BXO      -0.074400
      3 C2           0.3660     0.1040    -0.1970 c3         1 BXO      -0.148700
      4 C1          -0.7890    -0.7460     0.2300 c2         1 BXO       0.377200
      5 N1          -2.0260    -0.4910     0.1230 n2         1 BXO      -0.439200
      6 O1          -2.2760     0.7190    -0.4680 oh         1 BXO      -0.385500
      7 H4           3.8100     0.0410     0.3120 hc         1 BXO       0.033700
      8 H4A          2.9710     0.4520    -1.1820 hc         1 BXO       0.033700
      9 H4B          2.7630     1.4560     0.2500 hc         1 BXO       0.033700
     10 H3           1.8360    -1.4570    -0.0130 hc         1 BXO       0.039200
     11 H3A          1.6510    -0.4780     1.4250 hc         1 BXO       0.039200
     12 H2           0.2140     1.1340     0.1380 hc         1 BXO       0.065200
     13 H2A          0.3940     0.1510    -1.2910 hc         1 BXO       0.065200
     14 H1          -0.5840    -1.7090     0.6900 h4         1 BXO       0.023800
     15 HO1         -3.2350     0.7960    -0.4510 ho         1 BXO       0.426000
@<TRIPOS>BOND
     1     1     2 1   
     2     1     7 1   
     3     1     8 1   
     4     1     9 1   
     5     2     3 1   
     6     2    10 1   
     7     2    11 1   
     8     3     4 1   
     9     3    12 1   
    10     3    13 1   
    11     4     5 2   
    12     4    14 1   
    13     5     6 1   
    14     6    15 1   
@<TRIPOS>SUBSTRUCTURE
     1 BXO         1 TEMP              0 ****  ****    0 ROOT
