@<TRIPOS>MOLECULE
BXO
   15    14     1     0     0
SMALL
No Charge or Current Charge


@<TRIPOS>ATOM
      1 C4           2.9090     0.4280    -0.1270 c3         1 BXO      -0.090100
      2 C3           1.7230    -0.4500     0.3170 c3         1 BXO      -0.074400
      3 C2           0.3520     0.1260    -0.1060 c3         1 BXO      -0.148700
      4 C1          -0.8220    -0.7420     0.3320 c2         1 BXO       0.377200
      5 N1          -2.0770    -0.4880     0.1050 n2         1 BXO      -0.340700
      6 O1          -2.3360     0.7020    -0.6100 oh         1 BXO      -0.523000
      7 H4           3.8570    -0.0200     0.1950 hc         1 BXO       0.033700
      8 H4A          2.9310     0.5290    -1.2180 hc         1 BXO       0.033700
      9 H4B          2.8370     1.4300     0.3140 hc         1 BXO       0.033700
     10 H3           1.8430    -1.4540    -0.1110 hc         1 BXO       0.039200
     11 H3A          1.7500    -0.5620     1.4080 hc         1 BXO       0.039200
     12 H2           0.2430     1.1310     0.3200 hc         1 BXO       0.065200
     13 H2A          0.3360     0.2400    -1.1970 hc         1 BXO       0.065200
     14 H1          -0.5670    -1.6460     0.8790 h4         1 BXO       0.023800
     15 HO1         -3.3200     0.7440    -0.6950 ho         1 BXO       0.465000
@<TRIPOS>BOND
     1     1     2 1   
     2     1     7 1   
     3     1     8 1   
     4     1     9 1   
     5     2     3 1   
     6     2    10 1   
     7     2    11 1   
     8     3     4 1   
     9     3    12 1   
    10     3    13 1   
    11     4     5 2   
    12     4    14 1   
    13     5     6 1   
    14     6    15 1   
@<TRIPOS>SUBSTRUCTURE
     1 BXO         1 TEMP              0 ****  ****    0 ROOT
