@<TRIPOS>MOLECULE
BXR
   25    26     1     0     0
SMALL
No Charge or Current Charge


@<TRIPOS>ATOM
      1 C1           0.7150    -1.7710     0.6300 ca         1 BXR      -0.091000
      2 C2           2.0990    -1.5450     0.5690 ca         1 BXR      -0.099000
      3 C3           2.5860    -0.3230     0.0840 ca         1 BXR       0.133000
      4 C4           1.6930     0.6730    -0.3400 ca         1 BXR      -0.101000
      5 C5           0.3000     0.4600    -0.2860 ca         1 BXR      -0.033300
      6 C6          -0.1910    -0.7780     0.2060 ca         1 BXR      -0.013200
      7 Cl7          4.3200    -0.0370     0.0090 cl         1 BXR      -0.182000
      8 N8          -1.5580    -1.0440     0.2820 na         1 BXR       0.007500
      9 C9          -2.3390    -1.4560    -0.7580 cc         1 BXR       0.392400
     10 N10         -3.5400    -1.6410    -0.2390 nd         1 BXR      -0.382000
     11 N11         -3.4410    -1.3470     1.1110 nd         1 BXR      -0.046000
     12 N12         -2.2270    -0.9920     1.4500 nc         1 BXR      -0.197800
     13 C13         -0.6340     1.5830    -0.7440 c3         1 BXR      -0.039100
     14 C14         -1.1520     2.4300     0.4380 c3         1 BXR       0.153800
     15 N15         -2.0090     3.5440    -0.0180 n8         1 BXR      -1.001200
     16 H1           0.3430    -2.7210     1.0100 ha         1 BXR       0.133000
     17 H2           2.7940    -2.3140     0.8980 ha         1 BXR       0.141000
     18 H4           2.0880     1.6160    -0.7080 ha         1 BXR       0.141000
     19 H9          -2.0040    -1.5890    -1.7780 h5         1 BXR       0.079100
     20 H13         -0.1080     2.2430    -1.4450 hc         1 BXR       0.063700
     21 H13A        -1.4850     1.1790    -1.3050 hc         1 BXR       0.063700
     22 H14         -1.7270     1.7960     1.1270 h1         1 BXR       0.039200
     23 H14A        -0.2960     2.8460     0.9880 h1         1 BXR       0.039200
     24 HN15        -2.8640     3.1600    -0.4390 hn         1 BXR       0.398500
     25 HN1A        -2.3580     4.0550     0.8030 hn         1 BXR       0.398500
@<TRIPOS>BOND
     1     1     2 ar  
     2     1     6 ar  
     3     1    16 1   
     4     2     3 ar  
     5     2    17 1   
     6     3     4 ar  
     7     3     7 1   
     8     4     5 ar  
     9     4    18 1   
    10     5     6 ar  
    11     5    13 1   
    12     6     8 1   
    13     8     9 1   
    14     8    12 1   
    15     9    10 2   
    16     9    19 1   
    17    10    11 1   
    18    11    12 2   
    19    13    14 1   
    20    13    20 1   
    21    13    21 1   
    22    14    15 1   
    23    14    22 1   
    24    14    23 1   
    25    15    24 1   
    26    15    25 1   
@<TRIPOS>SUBSTRUCTURE
     1 BXR         1 TEMP              0 ****  ****    0 ROOT
