@<TRIPOS>MOLECULE
BXR
   25    26     1     0     0
SMALL
bcc


@<TRIPOS>ATOM
      1 C1           0.6940    -1.7750     0.4710 ca         1 BXR      -0.109000
      2 C2           2.0530    -1.5160     0.4770 ca         1 BXR      -0.117000
      3 C3           2.4840    -0.2460     0.1280 ca         1 BXR       0.041400
      4 C4           1.5900     0.7460    -0.2340 ca         1 BXR      -0.119000
      5 C5           0.2200     0.4960    -0.2590 ca         1 BXR      -0.033300
      6 C6          -0.2020    -0.7790     0.1100 ca         1 BXR      -0.013200
      7 CL7          4.1770     0.1050     0.1350 cl         1 BXR      -0.090400
      8 N8          -1.5830    -1.1040     0.1070 na         1 BXR       0.007500
      9 C9          -2.2420    -1.9970    -0.6370 cc         1 BXR       0.392400
     10 N10         -3.4970    -1.9780    -0.2790 nd         1 BXR      -0.382000
     11 N11         -3.5870    -1.0640     0.6910 nd         1 BXR      -0.046000
     12 N12         -2.4560    -0.5370     0.9360 nc         1 BXR      -0.197800
     13 C13         -0.7170     1.5990    -0.6580 c3         1 BXR      -0.039100
     14 C14         -1.0150     2.5510     0.5020 c3         1 BXR       0.153800
     15 N15         -1.9230     3.5970     0.0620 n8         1 BXR      -0.890800
     16 H1           0.3320    -2.7540     0.7560 ha         1 BXR       0.151000
     17 H2           2.7560    -2.2880     0.7560 ha         1 BXR       0.159000
     18 H4           1.9530     1.7260    -0.5170 ha         1 BXR       0.159000
     19 H9          -1.7870    -2.6070    -1.4010 h5         1 BXR       0.079100
     20 H13         -0.2640     2.1710    -1.4710 hc         1 BXR       0.063700
     21 H13A        -1.6530     1.1930    -1.0480 hc         1 BXR       0.063700
     22 H14         -1.3860     1.9710     1.3560 h1         1 BXR       0.039200
     23 H14A        -0.0810     3.0160     0.8240 h1         1 BXR       0.039200
     24 HN15        -2.8520     3.2080    -0.0520 hn         1 BXR       0.343300
     25 HN1A        -2.0090     4.2950     0.7890 hn         1 BXR       0.343300
@<TRIPOS>BOND
     1     1     2 ar  
     2     1     6 ar  
     3     1    16 1   
     4     2     3 ar  
     5     2    17 1   
     6     3     4 ar  
     7     3     7 1   
     8     4     5 ar  
     9     4    18 1   
    10     5     6 ar  
    11     5    13 1   
    12     6     8 1   
    13     8     9 1   
    14     8    12 1   
    15     9    10 2   
    16     9    19 1   
    17    10    11 1   
    18    11    12 2   
    19    13    14 1   
    20    13    20 1   
    21    13    21 1   
    22    14    15 1   
    23    14    22 1   
    24    14    23 1   
    25    15    24 1   
    26    15    25 1   
@<TRIPOS>SUBSTRUCTURE
     1 BXR         1 TEMP              0 ****  ****    0 ROOT
