@<TRIPOS>MOLECULE
BXS
   27    28     1     0     0
SMALL
No Charge or Current Charge


@<TRIPOS>ATOM
      1 C10          0.5140    -1.1770     0.4810 ca         1 BXS      -0.066000
      2 C15          5.1100     0.8190     0.0370 c6         1 BXS       0.121600
      3 C17          2.7160     0.4990    -0.0200 ca         1 BXS       0.024100
      4 C02         -4.7010    -0.6340    -0.5900 c          1 BXS       0.676200
      5 C04         -3.5780     0.2940    -0.0990 ce         1 BXS       0.095900
      6 C06         -2.2440    -0.0260    -0.1280 cf         1 BXS      -0.452200
      7 C09          0.3020     0.2050     0.2610 ca         1 BXS      -0.135600
      8 C11          1.8110    -1.7190     0.4320 ca         1 BXS      -0.134000
      9 C12          2.9110    -0.8910     0.1680 ca         1 BXS       0.055100
     10 C14          5.2240    -0.6330    -0.4740 c6         1 BXS       0.121600
     11 C18          1.4190     1.0370     0.0190 ca         1 BXS      -0.069000
     12 O01         -4.4260    -1.7380    -1.0430 o          1 BXS      -0.689000
     13 O03         -5.8490    -0.2110    -0.5000 o          1 BXS      -0.689000
     14 O05         -4.0150     1.4920     0.3860 oh         1 BXS      -0.526100
     15 O08         -1.2280     1.9610     0.6990 o          1 BXS      -0.581100
     16 O13          4.1750    -1.4420     0.1030 os         1 BXS      -0.338100
     17 O16          3.7900     1.3380    -0.2440 os         1 BXS      -0.333100
     18 H1          -0.3210    -1.8380     0.7060 ha         1 BXS       0.136000
     19 H2           5.2760     0.8400     1.1230 h1         1 BXS       0.057200
     20 H3           5.8630     1.4610    -0.4410 h1         1 BXS       0.057200
     21 H5          -1.9850    -1.0000    -0.5340 ha         1 BXS       0.198000
     22 H7           1.9620    -2.7840     0.5950 ha         1 BXS       0.118000
     23 H8           5.1220    -0.6450    -1.5690 h1         1 BXS       0.057200
     24 H9           6.2010    -1.0620    -0.2120 h1         1 BXS       0.057200
     25 H10          1.2830     2.1050    -0.1360 ha         1 BXS       0.145000
     26 H12         -4.9960     1.4400     0.2830 ho         1 BXS       0.496000
     27 C07         -1.0830     0.8080     0.3100 c          1 BXS       0.596900
@<TRIPOS>BOND
     1     1     7 ar  
     2     1     8 ar  
     3     1    18 1   
     4     2    10 1   
     5     2    17 1   
     6     2    19 1   
     7     2    20 1   
     8     3     9 ar  
     9     3    11 ar  
    10     3    17 1   
    11     4     5 1   
    12     4    12 1   
    13     4    13 1   
    14     5     6 2   
    15     5    14 1   
    16     6    21 1   
    17     6    27 1   
    18     7    11 ar  
    19     7    27 1   
    20     8     9 ar  
    21     8    22 1   
    22     9    16 1   
    23    10    16 1   
    24    10    23 1   
    25    10    24 1   
    26    11    25 1   
    27    14    26 1   
    28    15    27 2   
@<TRIPOS>SUBSTRUCTURE
     1 BXS         1 TEMP              0 ****  ****    0 ROOT
