@<TRIPOS>MOLECULE
BXS
   27    28     1     0     0
SMALL
abcg2


@<TRIPOS>ATOM
      1 C10          0.5290    -1.2280     0.0290 ca         1 BXS      -0.066000
      2 C15          4.9890     0.7910     0.3470 c6         1 BXS       0.121600
      3 C17          2.7100     0.4910    -0.0270 ca         1 BXS       0.024100
      4 C02         -4.6840    -0.6370    -0.0240 c          1 BXS       0.676200
      5 C04         -3.4900     0.3360    -0.0390 ce         1 BXS       0.095900
      6 C06         -2.2070    -0.0890    -0.0370 cf         1 BXS      -0.452200
      7 C09          0.3120     0.1500    -0.0270 ca         1 BXS      -0.135600
      8 C11          1.8140    -1.7420     0.0420 ca         1 BXS      -0.134000
      9 C12          2.9140    -0.8950     0.0060 ca         1 BXS       0.055100
     10 C14          5.1910    -0.5340    -0.3460 c6         1 BXS       0.121600
     11 C18          1.4220     0.9940    -0.0460 ca         1 BXS      -0.069000
     12 O01         -4.4670    -1.8500    -0.0140 o          1 BXS      -0.689000
     13 O03         -5.7770    -0.0280    -0.0250 o          1 BXS      -0.689000
     14 O05         -3.8810     1.5930    -0.0500 oh         1 BXS      -0.526100
     15 O08         -1.1330     2.0010    -0.0940 o          1 BXS      -0.581100
     16 O13          4.1480    -1.4350     0.0020 os         1 BXS      -0.338100
     17 O16          3.7480     1.3610    -0.0410 os         1 BXS      -0.333100
     18 H1          -0.2910    -1.9290     0.0530 ha         1 BXS       0.136000
     19 H2           5.0220     0.6630     1.4340 h1         1 BXS       0.057200
     20 H3           5.7700     1.4920     0.0590 h1         1 BXS       0.057200
     21 H5          -2.0830    -1.1600    -0.0240 ha         1 BXS       0.198000
     22 H7           1.9750    -2.8120     0.0730 ha         1 BXS       0.118000
     23 H8           5.2190    -0.4000    -1.4320 h1         1 BXS       0.057200
     24 H9           6.1280    -0.9910    -0.0310 h1         1 BXS       0.057200
     25 H10          1.2870     2.0680    -0.0750 ha         1 BXS       0.145000
     26 H12         -4.8660     1.5080    -0.0460 ho         1 BXS       0.496000
     27 C07         -1.0450     0.7790    -0.0550 c          1 BXS       0.596900
@<TRIPOS>BOND
     1     1     7 ar  
     2     1     8 ar  
     3     1    18 1   
     4     2    10 1   
     5     2    17 1   
     6     2    19 1   
     7     2    20 1   
     8     3     9 ar  
     9     3    11 ar  
    10     3    17 1   
    11     4     5 1   
    12     4    12 1   
    13     4    13 1   
    14     5     6 2   
    15     5    14 1   
    16     6    21 1   
    17     6    27 1   
    18     7    11 ar  
    19     7    27 1   
    20     8     9 ar  
    21     8    22 1   
    22     9    16 1   
    23    10    16 1   
    24    10    23 1   
    25    10    24 1   
    26    11    25 1   
    27    14    26 1   
    28    15    27 2   
@<TRIPOS>SUBSTRUCTURE
     1 BXS         1 TEMP              0 ****  ****    0 ROOT
