@<TRIPOS>MOLECULE
BXT
   26    25     1     0     0
SMALL
No Charge or Current Charge


@<TRIPOS>ATOM
      1 C2           5.1830   131.9320   154.8910 c3         1 BXT      -0.119100
      2 C4           4.4910   133.3050   154.8350 c3         1 BXT       0.123000
      3 C5           5.8570   134.6770   153.2030 c3         1 BXT       0.112300
      4 N            2.3130   135.7060   148.1700 n8         1 BXT      -1.005200
      5 CA           3.3960   135.3780   149.1850 c3         1 BXT      -0.000500
      6 C            4.7000   134.6830   148.6190 c          1 BXT       0.724000
      7 O            5.6830   135.3860   148.4170 o          1 BXT      -0.728000
      8 CB           2.8420   134.5620   150.3860 c3         1 BXT       0.212600
      9 OG           3.8370   134.5560   151.4250 os         1 BXT      -0.459100
     10 C1           3.5480   133.8830   152.5800 c          1 BXT       0.676100
     11 N3           4.6050   133.9480   153.5090 n          1 BXT      -0.410800
     12 O2           2.4970   133.2910   152.7870 o          1 BXT      -0.557000
     13 H1           5.0750   131.4930   155.8890 hc         1 BXT       0.041033
     14 H2           4.7360   131.2460   154.1620 hc         1 BXT       0.041033
     15 H3           6.2530   132.0270   154.6700 hc         1 BXT       0.041033
     16 H4           4.9430   133.9640   155.5880 h1         1 BXT       0.037700
     17 H5           3.4330   133.1880   155.1050 h1         1 BXT       0.037700
     18 H6           6.5610   134.5980   154.0420 h1         1 BXT       0.032033
     19 H7           6.3260   134.2480   152.3080 h1         1 BXT       0.032033
     20 H8           5.6350   135.7370   153.0250 h1         1 BXT       0.032033
     21 H12          3.7150   136.3500   149.5870 h1         1 BXT       0.008700
     22 H14          1.9190   135.0330   150.7500 h1         1 BXT       0.041200
     23 H15          2.6020   133.5400   150.0650 h1         1 BXT       0.041200
     24 OXT          4.6570   133.4980   148.3100 o          1 BXT      -0.728000
     25 H9           1.5910   136.2890   148.6110 hn         1 BXT       0.387000
     26 H10          2.7060   136.3190   147.4430 hn         1 BXT       0.387000
@<TRIPOS>BOND
     1     1     2 1   
     2     1    13 1   
     3     1    14 1   
     4     1    15 1   
     5     2    11 1   
     6     2    16 1   
     7     2    17 1   
     8     3    11 1   
     9     3    18 1   
    10     3    19 1   
    11     3    20 1   
    12     4     5 1   
    13     4    25 1   
    14     4    26 1   
    15     5     6 1   
    16     5     8 1   
    17     5    21 1   
    18     6     7 1   
    19     6    24 1   
    20     8     9 1   
    21     8    22 1   
    22     8    23 1   
    23     9    10 1   
    24    10    11 1   
    25    10    12 2   
@<TRIPOS>SUBSTRUCTURE
     1 BXT         1 TEMP              0 ****  ****    0 ROOT
