@<TRIPOS>MOLECULE
BXT
   26    25     1     0     0
SMALL
abcg2


@<TRIPOS>ATOM
      1 C2           5.5110   131.9030   153.9740 c3         1 BXT      -0.119100
      2 C4           4.4820   132.8950   154.4950 c3         1 BXT       0.123000
      3 C5           5.2600   135.0910   153.6200 c3         1 BXT       0.112300
      4 N            2.8160   135.6960   148.3160 n8         1 BXT      -1.005200
      5 CA           3.6220   135.3740   149.4850 c3         1 BXT      -0.000500
      6 C            4.6520   134.2670   149.1400 c          1 BXT       0.724000
      7 O            5.0840   134.2690   147.9700 o          1 BXT      -0.728000
      8 CB           2.6640   134.9800   150.6010 c3         1 BXT       0.212600
      9 OG           3.3260   135.0110   151.8630 os         1 BXT      -0.459100
     10 C1           3.3680   133.9090   152.6110 c          1 BXT       0.676100
     11 N3           4.2730   134.0280   153.6100 n          1 BXT      -0.410800
     12 O2           2.6450   132.9440   152.4540 o          1 BXT      -0.557000
     13 H1           5.6430   131.0860   154.6850 hc         1 BXT       0.041033
     14 H2           5.1960   131.4730   153.0230 hc         1 BXT       0.041033
     15 H3           6.4820   132.3760   153.8280 hc         1 BXT       0.041033
     16 H4           4.8000   133.2870   155.4630 h1         1 BXT       0.037700
     17 H5           3.5290   132.3970   154.6610 h1         1 BXT       0.037700
     18 H6           5.8770   134.9800   154.5090 h1         1 BXT       0.032033
     19 H7           5.9180   135.0580   152.7500 h1         1 BXT       0.032033
     20 H8           4.7960   136.0760   153.6650 h1         1 BXT       0.032033
     21 H12          4.2080   136.2400   149.8380 h1         1 BXT       0.008700
     22 H14          1.8470   135.7050   150.6550 h1         1 BXT       0.041200
     23 H15          2.2240   134.0020   150.4060 h1         1 BXT       0.041200
     24 OXT          4.9890   133.4940   150.0580 o          1 BXT      -0.728000
     25 H9           2.4750   136.6460   148.3780 hn         1 BXT       0.387000
     26 H10          3.4170   135.6490   147.5040 hn         1 BXT       0.387000
@<TRIPOS>BOND
     1     1     2 1   
     2     1    13 1   
     3     1    14 1   
     4     1    15 1   
     5     2    11 1   
     6     2    16 1   
     7     2    17 1   
     8     3    11 1   
     9     3    18 1   
    10     3    19 1   
    11     3    20 1   
    12     4     5 1   
    13     4    25 1   
    14     4    26 1   
    15     5     6 1   
    16     5     8 1   
    17     5    21 1   
    18     6     7 1   
    19     6    24 1   
    20     8     9 1   
    21     8    22 1   
    22     8    23 1   
    23     9    10 1   
    24    10    11 1   
    25    10    12 2   
@<TRIPOS>SUBSTRUCTURE
     1 BXT         1 TEMP              0 ****  ****    0 ROOT
