@<TRIPOS>MOLECULE
BXV
   51    53     1     0     0
SMALL
No Charge or Current Charge


@<TRIPOS>ATOM
      1 F29         -9.0970    -0.9880     0.8970 f          1 BXV      -0.112000
      2 C26         -9.2950    -0.0380    -0.0460 c3         1 BXV       0.511000
      3 F27         -9.1490    -0.6180    -1.2600 f          1 BXV      -0.112000
      4 F28        -10.5860     0.3480     0.0510 f          1 BXV      -0.112000
      5 O25         -8.4120     1.0910     0.1260 os         1 BXV      -0.398100
      6 C24         -7.0310     1.0120     0.0800 ca         1 BXV       0.048100
      7 C23         -6.3240    -0.1920    -0.1430 ca         1 BXV      -0.070500
      8 C22         -4.9170    -0.1920    -0.1770 ca         1 BXV      -0.147500
      9 C30         -6.3100     2.2020     0.2670 ca         1 BXV      -0.070500
     10 C31         -4.9040     2.1990     0.2330 ca         1 BXV      -0.147500
     11 C1          -4.1930     1.0060     0.0110 ca         1 BXV       0.018000
     12 N2          -2.7730     1.0800    -0.0100 ns         1 BXV      -0.168000
     13 C3          -1.7930     0.1240    -0.2160 c          1 BXV       0.664100
     14 O21         -1.9950    -1.0600    -0.4450 o          1 BXV      -0.621100
     15 N4          -0.5250     0.6510    -0.1420 ns         1 BXV      -0.518900
     16 C5           0.7210    -0.1070    -0.2950 c6         1 BXV       0.116700
     17 C20          1.1040    -0.8010     1.0390 c6         1 BXV      -0.088400
     18 C19          2.4480    -1.5640     0.9150 c6         1 BXV      -0.088900
     19 C8           3.5950    -0.6240     0.4660 c6         1 BXV       0.183300
     20 C7           3.2120     0.0800    -0.8670 c6         1 BXV      -0.088900
     21 C6           1.8670     0.8390    -0.7370 c6         1 BXV      -0.088400
     22 O9           4.8070    -1.3960     0.3170 os         1 BXV      -0.364100
     23 C10          6.0470    -0.8040     0.1700 ca         1 BXV       0.101100
     24 C18          6.2840     0.5690     0.3960 ca         1 BXV      -0.201000
     25 C17          7.5770     1.1000     0.2360 ca         1 BXV      -0.056000
     26 C13          8.6580     0.2730    -0.1460 ca         1 BXV      -0.158600
     27 C14         10.0540     0.8480    -0.3190 c          1 BXV       0.714600
     28 O16         10.9600     0.0960    -0.6490 o          1 BXV      -0.724000
     29 O15         10.2240     2.0430    -0.1210 o          1 BXV      -0.724000
     30 C12          8.4110    -1.1020    -0.3610 ca         1 BXV      -0.056000
     31 C11          7.1180    -1.6300    -0.2000 ca         1 BXV      -0.201000
     32 H1          -6.8400    -1.1350    -0.2920 ha         1 BXV       0.132000
     33 H2          -4.4110    -1.1360    -0.3490 ha         1 BXV       0.135500
     34 H3          -6.8440     3.1330     0.4400 ha         1 BXV       0.132000
     35 H4          -4.3670     3.1330     0.3810 ha         1 BXV       0.135500
     36 H5          -2.4160     2.0100     0.1610 hn         1 BXV       0.145000
     37 H6          -0.4570     1.6420     0.0480 hn         1 BXV       0.304500
     38 H7           0.5750    -0.8750    -1.0720 h1         1 BXV       0.088700
     39 H8           1.1770    -0.0540     1.8420 hc         1 BXV       0.041950
     40 H9           0.3120    -1.5020     1.3360 hc         1 BXV       0.041950
     41 H10          2.7030    -2.0200     1.8810 hc         1 BXV       0.059200
     42 H11          2.3410    -2.3890     0.1980 hc         1 BXV       0.059200
     43 H12          3.7390     0.1240     1.2580 h1         1 BXV       0.042700
     44 H13          3.9980     0.7850    -1.1690 hc         1 BXV       0.059200
     45 H14          3.1400    -0.6650    -1.6700 hc         1 BXV       0.059200
     46 H15          1.6130     1.3030    -1.7000 hc         1 BXV       0.041950
     47 H16          1.9770     1.6590    -0.0140 hc         1 BXV       0.041950
     48 H17          5.4880     1.2410     0.7000 ha         1 BXV       0.094000
     49 H18          7.7350     2.1620     0.4150 ha         1 BXV       0.126500
     50 H20          9.2200    -1.7680    -0.6530 ha         1 BXV       0.126500
     51 H21          6.9460    -2.6900    -0.3690 ha         1 BXV       0.094000
@<TRIPOS>BOND
     1     1     2 1   
     2     2     3 1   
     3     2     4 1   
     4     2     5 1   
     5     5     6 1   
     6     6     7 ar  
     7     6     9 ar  
     8     7     8 ar  
     9     7    32 1   
    10     8    11 ar  
    11     8    33 1   
    12     9    10 ar  
    13     9    34 1   
    14    10    11 ar  
    15    10    35 1   
    16    11    12 1   
    17    12    13 1   
    18    12    36 1   
    19    13    14 2   
    20    13    15 1   
    21    15    16 1   
    22    15    37 1   
    23    16    17 1   
    24    16    21 1   
    25    16    38 1   
    26    17    18 1   
    27    17    39 1   
    28    17    40 1   
    29    18    19 1   
    30    18    41 1   
    31    18    42 1   
    32    19    20 1   
    33    19    22 1   
    34    19    43 1   
    35    20    21 1   
    36    20    44 1   
    37    20    45 1   
    38    21    46 1   
    39    21    47 1   
    40    22    23 1   
    41    23    24 ar  
    42    23    31 ar  
    43    24    25 ar  
    44    24    48 1   
    45    25    26 ar  
    46    25    49 1   
    47    26    27 1   
    48    26    30 ar  
    49    27    28 1   
    50    27    29 1   
    51    30    31 ar  
    52    30    50 1   
    53    31    51 1   
@<TRIPOS>SUBSTRUCTURE
     1 BXV         1 TEMP              0 ****  ****    0 ROOT
