@<TRIPOS>MOLECULE
BXV
   51    53     1     0     0
SMALL
abcg2


@<TRIPOS>ATOM
      1 F29         -8.8410    -0.0620     1.3740 f          1 BXV      -0.112000
      2 C26         -8.9560    -0.1280     0.0460 c3         1 BXV       0.511000
      3 F27         -8.5700    -1.3550    -0.3130 f          1 BXV      -0.112000
      4 F28        -10.2350     0.0130    -0.2680 f          1 BXV      -0.112000
      5 O25         -8.2730     0.8350    -0.5820 os         1 BXV      -0.398100
      6 C24         -6.8950     0.8820    -0.3820 ca         1 BXV       0.048100
      7 C23         -6.0550     0.1930    -1.2370 ca         1 BXV      -0.070500
      8 C22         -4.6800     0.2780    -1.0790 ca         1 BXV      -0.147500
      9 C30         -6.3800     1.6720     0.6310 ca         1 BXV      -0.070500
     10 C31         -5.0090     1.7490     0.7940 ca         1 BXV      -0.147500
     11 C1          -4.1380     1.0500    -0.0470 ca         1 BXV       0.018000
     12 N2          -2.7740     1.2120     0.1710 ns         1 BXV      -0.168000
     13 C3          -1.7690     0.3320    -0.1680 c          1 BXV       0.664100
     14 O21         -1.9720    -0.7010    -0.7900 o          1 BXV      -0.621100
     15 N4          -0.5450     0.7320     0.2450 ns         1 BXV      -0.518900
     16 C5           0.6620    -0.0420     0.0440 c6         1 BXV       0.116700
     17 C20          1.2260    -0.5400     1.3730 c6         1 BXV      -0.088400
     18 C19          2.5120    -1.3340     1.1700 c6         1 BXV      -0.088900
     19 C8           3.5440    -0.5080     0.4200 c6         1 BXV       0.183300
     20 C7           2.9900    -0.0380    -0.9200 c6         1 BXV      -0.088900
     21 C6           1.7080     0.7650    -0.7220 c6         1 BXV      -0.088400
     22 O9           4.6940    -1.3290     0.2510 os         1 BXV      -0.364100
     23 C10          5.9120    -0.7810     0.0680 ca         1 BXV       0.101100
     24 C18          6.1780     0.5870     0.0100 ca         1 BXV      -0.201000
     25 C17          7.4860     1.0280    -0.1550 ca         1 BXV      -0.056000
     26 C13          8.5530     0.1440    -0.2690 ca         1 BXV      -0.158600
     27 C14          9.9780     0.6420    -0.4340 c          1 BXV       0.714600
     28 O16         10.8710    -0.2280    -0.4930 o          1 BXV      -0.724000
     29 O15         10.1400     1.8770    -0.4940 o          1 BXV      -0.724000
     30 C12          8.2660    -1.2200    -0.2190 ca         1 BXV      -0.056000
     31 C11          6.9730    -1.6810    -0.0560 ca         1 BXV      -0.201000
     32 H1          -6.4610    -0.3960    -2.0490 ha         1 BXV       0.132000
     33 H2          -4.0430    -0.2520    -1.7670 ha         1 BXV       0.135500
     34 H3          -7.0340     2.2300     1.2870 ha         1 BXV       0.132000
     35 H4          -4.6070     2.3580     1.5950 ha         1 BXV       0.135500
     36 H5          -2.5320     1.9720     0.7880 hn         1 BXV       0.145000
     37 H6          -0.4550     1.5850     0.7760 hn         1 BXV       0.304500
     38 H7           0.3860    -0.9090    -0.5590 h1         1 BXV       0.088700
     39 H8           1.4190     0.3150     2.0310 hc         1 BXV       0.041950
     40 H9           0.4840    -1.1610     1.8790 hc         1 BXV       0.041950
     41 H10          2.9140    -1.6440     2.1370 hc         1 BXV       0.059200
     42 H11          2.2930    -2.2460     0.6040 hc         1 BXV       0.059200
     43 H12          3.7970     0.3640     1.0380 h1         1 BXV       0.042700
     44 H13          3.7220     0.5680    -1.4580 hc         1 BXV       0.059200
     45 H14          2.7860    -0.9140    -1.5450 hc         1 BXV       0.059200
     46 H15          1.3040     1.0660    -1.6900 hc         1 BXV       0.041950
     47 H16          1.9330     1.6870    -0.1740 hc         1 BXV       0.041950
     48 H17          5.3910     1.3230     0.0920 ha         1 BXV       0.094000
     49 H18          7.6710     2.0930    -0.1960 ha         1 BXV       0.126500
     50 H20          9.0720    -1.9360    -0.3050 ha         1 BXV       0.126500
     51 H21          6.7720    -2.7450    -0.0150 ha         1 BXV       0.094000
@<TRIPOS>BOND
     1     1     2 1   
     2     2     3 1   
     3     2     4 1   
     4     2     5 1   
     5     5     6 1   
     6     6     7 ar  
     7     6     9 ar  
     8     7     8 ar  
     9     7    32 1   
    10     8    11 ar  
    11     8    33 1   
    12     9    10 ar  
    13     9    34 1   
    14    10    11 ar  
    15    10    35 1   
    16    11    12 1   
    17    12    13 1   
    18    12    36 1   
    19    13    14 2   
    20    13    15 1   
    21    15    16 1   
    22    15    37 1   
    23    16    17 1   
    24    16    21 1   
    25    16    38 1   
    26    17    18 1   
    27    17    39 1   
    28    17    40 1   
    29    18    19 1   
    30    18    41 1   
    31    18    42 1   
    32    19    20 1   
    33    19    22 1   
    34    19    43 1   
    35    20    21 1   
    36    20    44 1   
    37    20    45 1   
    38    21    46 1   
    39    21    47 1   
    40    22    23 1   
    41    23    24 ar  
    42    23    31 ar  
    43    24    25 ar  
    44    24    48 1   
    45    25    26 ar  
    46    25    49 1   
    47    26    27 1   
    48    26    30 ar  
    49    27    28 1   
    50    27    29 1   
    51    30    31 ar  
    52    30    50 1   
    53    31    51 1   
@<TRIPOS>SUBSTRUCTURE
     1 BXV         1 TEMP              0 ****  ****    0 ROOT
