@<TRIPOS>MOLECULE
BXW
   20    21     1     0     0
SMALL
No Charge or Current Charge


@<TRIPOS>ATOM
      1 O19          4.3400     0.6850     0.0350 o          1 BXW      -0.714500
      2 C20          3.5090    -0.2120     0.0020 c          1 BXW       0.715600
      3 C21          2.0380     0.1620    -0.0230 ca         1 BXW      -0.146600
      4 O22          3.8120    -1.3970    -0.0120 o          1 BXW      -0.714500
      5 C23          1.6350     1.5170    -0.0100 ca         1 BXW      -0.052000
      6 C24          0.2710     1.8580    -0.0370 ca         1 BXW      -0.175000
      7 C25          1.0400    -0.8390    -0.0650 ca         1 BXW      -0.032000
      8 C26         -0.3250    -0.4960    -0.0830 ca         1 BXW      -0.168000
      9 C27         -0.7140     0.8580    -0.0680 ca         1 BXW      -0.055000
     10 N28         -2.0770     1.2390    -0.1220 ns         1 BXW      -0.140000
     11 C29         -3.2090     0.4560     0.0040 c          1 BXW       0.575000
     12 C30         -3.0040    -0.9490     0.5790 c6         1 BXW      -0.049400
     13 S31         -1.5450    -1.7990    -0.1650 ss         1 BXW      -0.171000
     14 O32         -4.3240     0.8800    -0.2820 o          1 BXW      -0.575000
     15 H23          2.3780     2.3120     0.0180 ha         1 BXW       0.134000
     16 H24         -0.0170     2.9070    -0.0340 ha         1 BXW       0.094000
     17 H25          1.3210    -1.8900    -0.0830 ha         1 BXW       0.144000
     18 HN28        -2.2430     2.1980    -0.4000 hn         1 BXW       0.150000
     19 H30         -2.8320    -0.8400     1.6580 h1         1 BXW       0.089200
     20 H30A        -3.9100    -1.5450     0.4070 h1         1 BXW       0.089200
@<TRIPOS>BOND
     1     1     2 1   
     2     2     3 1   
     3     2     4 1   
     4     3     5 ar  
     5     3     7 ar  
     6     5     6 ar  
     7     5    15 1   
     8     6     9 ar  
     9     6    16 1   
    10     7     8 ar  
    11     7    17 1   
    12     8     9 ar  
    13     8    13 1   
    14     9    10 1   
    15    10    11 1   
    16    10    18 1   
    17    11    12 1   
    18    11    14 2   
    19    12    13 1   
    20    12    19 1   
    21    12    20 1   
@<TRIPOS>SUBSTRUCTURE
     1 BXW         1 TEMP              0 ****  ****    0 ROOT
