@<TRIPOS>MOLECULE
BXW
   20    21     1     0     0
SMALL
abcg2


@<TRIPOS>ATOM
      1 O19          4.2700     0.7090     0.1220 o          1 BXW      -0.714500
      2 C20          3.4530    -0.2300     0.0630 c          1 BXW       0.715600
      3 C21          1.9810     0.1540    -0.0080 ca         1 BXW      -0.146600
      4 O22          3.7120    -1.4480     0.0530 o          1 BXW      -0.714500
      5 C23          1.5820     1.4890     0.0170 ca         1 BXW      -0.052000
      6 C24          0.2440     1.8370    -0.0410 ca         1 BXW      -0.175000
      7 C25          0.9980    -0.8250    -0.0900 ca         1 BXW      -0.032000
      8 C26         -0.3460    -0.4880    -0.1690 ca         1 BXW      -0.168000
      9 C27         -0.7350     0.8540    -0.1490 ca         1 BXW      -0.055000
     10 N28         -2.0750     1.2180    -0.2740 ns         1 BXW      -0.140000
     11 C29         -3.1640     0.4670     0.0370 c          1 BXW       0.575000
     12 C30         -2.8700    -0.9040     0.5930 c6         1 BXW      -0.049400
     13 S31         -1.5770    -1.7300    -0.3610 ss         1 BXW      -0.171000
     14 O32         -4.2960     0.8910    -0.0950 o          1 BXW      -0.575000
     15 H23          2.3290     2.2670     0.0910 ha         1 BXW       0.134000
     16 H24         -0.0490     2.8800    -0.0120 ha         1 BXW       0.094000
     17 H25          1.2850    -1.8680    -0.0970 ha         1 BXW       0.144000
     18 HN28        -2.2650     2.1740    -0.5420 hn         1 BXW       0.150000
     19 H30         -2.5680    -0.8230     1.6400 h1         1 BXW       0.089200
     20 H30A        -3.7660    -1.5180     0.5400 h1         1 BXW       0.089200
@<TRIPOS>BOND
     1     1     2 1   
     2     2     3 1   
     3     2     4 1   
     4     3     5 ar  
     5     3     7 ar  
     6     5     6 ar  
     7     5    15 1   
     8     6     9 ar  
     9     6    16 1   
    10     7     8 ar  
    11     7    17 1   
    12     8     9 ar  
    13     8    13 1   
    14     9    10 1   
    15    10    11 1   
    16    10    18 1   
    17    11    12 1   
    18    11    14 2   
    19    12    13 1   
    20    12    19 1   
    21    12    20 1   
@<TRIPOS>SUBSTRUCTURE
     1 BXW         1 TEMP              0 ****  ****    0 ROOT
