@<TRIPOS>MOLECULE
BXX
   20    20     1     0     0
SMALL
No Charge or Current Charge


@<TRIPOS>ATOM
      1 O2          13.2030    30.7780    -3.6080 oh         1 BXX      -0.719000
      2 C2          13.3480    31.3030    -4.9430 c5         1 BXX       0.099300
      3 C1          12.5420    32.6110    -5.2220 c5         1 BXX       0.399300
      4 O4          12.6200    32.7200    -6.6530 os         1 BXX      -0.442000
      5 C3          12.7290    30.3790    -6.0340 c5         1 BXX       0.105300
      6 O3          13.5620    29.2390    -6.3020 oh         1 BXX      -0.711000
      7 C4          12.5980    31.3830    -7.2360 c5         1 BXX       0.088300
      8 C5          11.3020    31.1980    -8.0690 c3         1 BXX       0.156600
      9 O5          11.2730    32.1430    -9.1510 oh         1 BXX      -0.711000
     10 HO2         13.5940    29.8700    -3.6290 ho         1 BXX       0.528000
     11 H2          14.4100    31.4850    -5.1610 h1         1 BXX       0.066700
     12 O1          11.1790    32.4990    -4.8250 oh         1 BXX      -0.745000
     13 H1          13.0150    33.4800    -4.7410 h2         1 BXX       0.082700
     14 H3          11.7310    30.0430    -5.7160 h1         1 BXX       0.058700
     15 HO3         13.0540    28.6280    -6.8870 ho         1 BXX       0.515000
     16 H4          13.4620    31.2900    -7.9080 h1         1 BXX       0.082700
     17 H51         11.2690    30.1710    -8.4580 h1         1 BXX       0.046200
     18 H52         10.4310    31.3340    -7.4130 h1         1 BXX       0.046200
     19 HO5         11.5160    33.0110    -8.7470 ho         1 BXX       0.517000
     20 HO1         11.2350    32.0530    -3.9480 ho         1 BXX       0.535000
@<TRIPOS>BOND
     1     1     2 1   
     2     1    10 1   
     3     2     3 1   
     4     2     5 1   
     5     2    11 1   
     6     3     4 1   
     7     3    12 1   
     8     3    13 1   
     9     4     7 1   
    10     5     6 1   
    11     5     7 1   
    12     5    14 1   
    13     6    15 1   
    14     7     8 1   
    15     7    16 1   
    16     8     9 1   
    17     8    17 1   
    18     8    18 1   
    19     9    19 1   
    20    12    20 1   
@<TRIPOS>SUBSTRUCTURE
     1 BXX         1 TEMP              0 ****  ****    0 ROOT
