@<TRIPOS>MOLECULE
BXX
   20    20     1     0     0
SMALL
abcg2


@<TRIPOS>ATOM
      1 O2          13.0610    30.7940    -3.6590 oh         1 BXX      -0.719000
      2 C2          13.3070    31.2340    -4.9630 c5         1 BXX       0.099300
      3 C1          12.6080    32.5670    -5.2180 c5         1 BXX       0.399300
      4 O4          12.5820    32.6880    -6.6020 os         1 BXX      -0.442000
      5 C3          12.7270    30.3770    -6.0800 c5         1 BXX       0.105300
      6 O3          13.5620    29.2850    -6.3560 oh         1 BXX      -0.711000
      7 C4          12.6100    31.3960    -7.2210 c5         1 BXX       0.088300
      8 C5          11.3760    31.1990    -8.0800 c3         1 BXX       0.156600
      9 O5          11.2780    32.1270    -9.1320 oh         1 BXX      -0.711000
     10 HO2         13.4650    29.9290    -3.5370 ho         1 BXX       0.528000
     11 H2          14.3830    31.3690    -5.1510 h1         1 BXX       0.066700
     12 O1          11.2890    32.5620    -4.7500 oh         1 BXX      -0.745000
     13 H1          13.1620    33.4220    -4.8110 h2         1 BXX       0.082700
     14 H3          11.7260    30.0390    -5.7790 h1         1 BXX       0.058700
     15 HO3         13.0750    28.6510    -6.8920 ho         1 BXX       0.515000
     16 H4          13.5070    31.3420    -7.8500 h1         1 BXX       0.082700
     17 H51         11.4280    30.2060    -8.5340 h1         1 BXX       0.046200
     18 H52         10.4850    31.2120    -7.4380 h1         1 BXX       0.046200
     19 HO5         11.1610    33.0010    -8.7480 ho         1 BXX       0.517000
     20 HO1         11.2830    32.2180    -3.8490 ho         1 BXX       0.535000
@<TRIPOS>BOND
     1     1     2 1   
     2     1    10 1   
     3     2     3 1   
     4     2     5 1   
     5     2    11 1   
     6     3     4 1   
     7     3    12 1   
     8     3    13 1   
     9     4     7 1   
    10     5     6 1   
    11     5     7 1   
    12     5    14 1   
    13     6    15 1   
    14     7     8 1   
    15     7    16 1   
    16     8     9 1   
    17     8    17 1   
    18     8    18 1   
    19     9    19 1   
    20    12    20 1   
@<TRIPOS>SUBSTRUCTURE
     1 BXX         1 TEMP              0 ****  ****    0 ROOT
