@<TRIPOS>MOLECULE
BXY
   20    20     1     0     0
SMALL
abcg2


@<TRIPOS>ATOM
      1 O5           4.7880    35.4340    -0.0210 oh         1 BXY      -0.699000
      2 C5           5.5950    36.2590     0.7830 c3         1 BXY       0.158600
      3 C4           6.1410    37.4860     0.0770 c5         1 BXY       0.107300
      4 C3           5.1120    38.4280    -0.5490 c5         1 BXY       0.092300
      5 O3           4.5070    39.3150     0.3500 oh         1 BXY      -0.707000
      6 C2           5.9850    39.1650    -1.5490 c5         1 BXY       0.143300
      7 O2           5.3210    39.7590    -2.6280 oh         1 BXY      -0.702000
      8 C1           6.9160    38.0640    -2.0460 c5         1 BXY       0.389300
      9 O4           6.9620    37.0990    -1.0160 os         1 BXY      -0.468000
     10 HO5          3.9080    35.8160    -0.0770 ho         1 BXY       0.492000
     11 H51          5.0710    36.6000     1.6850 h1         1 BXY       0.053200
     12 H52          6.4360    35.6510     1.1260 h1         1 BXY       0.053200
     13 H4           6.7250    38.0490     0.8220 h1         1 BXY       0.062700
     14 H3           4.3630    37.8430    -1.1050 h1         1 BXY       0.053700
     15 HO3          3.7870    38.8620     0.7980 ho         1 BXY       0.510000
     16 H2           6.5870    39.9010    -0.9930 h1         1 BXY       0.071700
     17 HO2          4.8290    40.5190    -2.3010 ho         1 BXY       0.520000
     18 O1           8.1680    38.5900    -2.3180 oh         1 BXY      -0.714000
     19 H1           6.4960    37.5830    -2.9410 h2         1 BXY       0.062700
     20 HO1          8.6590    37.9770    -2.8740 ho         1 BXY       0.522000
@<TRIPOS>BOND
     1     1     2 1   
     2     1    10 1   
     3     2     3 1   
     4     2    11 1   
     5     2    12 1   
     6     3     4 1   
     7     3     9 1   
     8     3    13 1   
     9     4     5 1   
    10     4     6 1   
    11     4    14 1   
    12     5    15 1   
    13     6     7 1   
    14     6     8 1   
    15     6    16 1   
    16     7    17 1   
    17     8     9 1   
    18     8    18 1   
    19     8    19 1   
    20    18    20 1   
@<TRIPOS>SUBSTRUCTURE
     1 BXY         1 TEMP              0 ****  ****    0 ROOT
