@<TRIPOS>MOLECULE
BXY
   20    20     1     0     0
SMALL
No Charge or Current Charge


@<TRIPOS>ATOM
      1 O5           4.7510    35.4390     0.0540 oh         1 BXY      -0.699000
      2 C5           5.6620    36.2720     0.8040 c3         1 BXY       0.158600
      3 C4           6.1630    37.5000    -0.0150 c5         1 BXY       0.107300
      4 C3           5.0800    38.4230    -0.6550 c5         1 BXY       0.092300
      5 O3           4.3720    39.2560     0.2800 oh         1 BXY      -0.707000
      6 C2           6.0320    39.2470    -1.5630 c5         1 BXY       0.143300
      7 O2           5.3310    40.0650    -2.5200 oh         1 BXY      -0.702000
      8 C1           6.9060    38.0840    -2.1660 c5         1 BXY       0.389300
      9 O4           6.9660    37.0700    -1.1460 os         1 BXY      -0.468000
     10 HO5          3.8500    35.8220     0.1500 ho         1 BXY       0.492000
     11 H51          5.1800    36.6360     1.7230 h1         1 BXY       0.053200
     12 H52          6.5390    35.6890     1.1140 h1         1 BXY       0.053200
     13 H4           6.8110    38.0910     0.6480 h1         1 BXY       0.062700
     14 H3           4.3750    37.8380    -1.2650 h1         1 BXY       0.053700
     15 HO3          3.6260    38.7290     0.6540 ho         1 BXY       0.510000
     16 H2           6.6720    39.8870    -0.9380 h1         1 BXY       0.071700
     17 HO2          4.6470    40.5520    -2.0020 ho         1 BXY       0.520000
     18 O1           8.2290    38.4840    -2.4760 oh         1 BXY      -0.714000
     19 H1           6.4130    37.6650    -3.0540 h2         1 BXY       0.062700
     20 HO1          8.7500    37.6530    -2.4040 ho         1 BXY       0.522000
@<TRIPOS>BOND
     1     1     2 1   
     2     1    10 1   
     3     2     3 1   
     4     2    11 1   
     5     2    12 1   
     6     3     4 1   
     7     3     9 1   
     8     3    13 1   
     9     4     5 1   
    10     4     6 1   
    11     4    14 1   
    12     5    15 1   
    13     6     7 1   
    14     6     8 1   
    15     6    16 1   
    16     7    17 1   
    17     8     9 1   
    18     8    18 1   
    19     8    19 1   
    20    18    20 1   
@<TRIPOS>SUBSTRUCTURE
     1 BXY         1 TEMP              0 ****  ****    0 ROOT
