@<TRIPOS>MOLECULE
BXZ
   27    29     1     0     0
SMALL
bcc


@<TRIPOS>ATOM
      1 C1           3.3930    -1.8740    -0.8250 ca         1 BXZ      -0.253000
      2 C2           2.1980    -1.2200    -0.6320 ca         1 BXZ      -0.002000
      3 C3           2.2230     0.0380    -0.0290 ca         1 BXZ      -0.284900
      4 C4           3.4430     0.5970     0.3290 ca         1 BXZ       0.118100
      5 C5           4.6640    -0.0290     0.1510 ca         1 BXZ      -0.186000
      6 C6           4.6180    -1.2880    -0.4330 ca         1 BXZ       0.189100
      7 O1           5.7830    -1.9170    -0.6330 oh         1 BXZ      -0.483100
      8 O2           3.2420     1.8250     0.8270 os         1 BXZ      -0.004600
      9 N1           1.8970     2.0930     0.8130 nc         1 BXZ      -0.441200
     10 C7           1.2800     1.0530     0.3280 cd         1 BXZ       0.471500
     11 C8          -0.1640     1.0720     0.1210 ca         1 BXZ      -0.265900
     12 C9          -0.9080    -0.0870     0.3270 ca         1 BXZ      -0.001000
     13 C10         -2.2620    -0.1310     0.0660 ca         1 BXZ      -0.112900
     14 C11         -2.9190     1.0110    -0.4020 ca         1 BXZ       0.222100
     15 C12         -2.1910     2.1790    -0.5900 ca         1 BXZ      -0.283000
     16 C13         -0.8270     2.2270    -0.3270 ca         1 BXZ       0.243100
     17 O3          -0.2150     3.4010    -0.5040 oh         1 BXZ      -0.485100
     18 O4          -4.2340     0.9480    -0.6240 oh         1 BXZ      -0.470100
     19 BR1         -3.2310    -1.7220     0.3230 br         1 BXZ      -0.069100
     20 H1           3.4000    -2.8450    -1.3050 ha         1 BXZ       0.139000
     21 H2           1.2760    -1.6740    -0.9690 ha         1 BXZ       0.147000
     22 H5           5.6020     0.4290     0.4360 ha         1 BXZ       0.173000
     23 HO1          5.6460    -2.7630    -1.0750 ho         1 BXZ       0.435000
     24 H9          -0.4110    -0.9710     0.7040 ha         1 BXZ       0.151000
     25 H12         -2.7040     3.0950    -0.8600 ha         1 BXZ       0.155000
     26 HO3          0.7260     3.3350    -0.2810 ho         1 BXZ       0.460000
     27 HO4         -4.5240     1.6850    -1.1750 ho         1 BXZ       0.438000
@<TRIPOS>BOND
     1     1     2 ar  
     2     1     6 ar  
     3     1    20 1   
     4     2     3 ar  
     5     2    21 1   
     6     3     4 ar  
     7     3    10 1   
     8     4     5 ar  
     9     4     8 1   
    10     5     6 ar  
    11     5    22 1   
    12     6     7 1   
    13     7    23 1   
    14     8     9 1   
    15     9    10 2   
    16    10    11 1   
    17    11    12 ar  
    18    11    16 ar  
    19    12    13 ar  
    20    12    24 1   
    21    13    14 ar  
    22    13    19 1   
    23    14    15 ar  
    24    14    18 1   
    25    15    16 ar  
    26    15    25 1   
    27    16    17 1   
    28    17    26 1   
    29    18    27 1   
@<TRIPOS>SUBSTRUCTURE
     1 BXZ         1 TEMP              0 ****  ****    0 ROOT
