@<TRIPOS>MOLECULE
BXZ
   27    29     1     0     0
SMALL
No Charge or Current Charge


@<TRIPOS>ATOM
      1 C1           3.3650    -1.8530    -0.8560 ca         1 BXZ      -0.235000
      2 C2           2.1810    -1.1030    -0.6930 ca         1 BXZ       0.016000
      3 C3           2.2850     0.1350    -0.0400 ca         1 BXZ      -0.284900
      4 C4           3.4800     0.6290     0.3800 ca         1 BXZ       0.118100
      5 C5           4.6700    -0.0870     0.2260 ca         1 BXZ      -0.168000
      6 C6           4.6010    -1.3490    -0.3920 ca         1 BXZ       0.189100
      7 O1           5.7390    -2.0770    -0.5590 oh         1 BXZ      -0.522100
      8 O2           3.3480     1.8870     0.9050 os         1 BXZ      -0.103100
      9 N1           1.9250     2.2350     0.7990 nc         1 BXZ      -0.342700
     10 C7           1.3260     1.1660     0.2620 cd         1 BXZ       0.471500
     11 C8          -0.1240     1.1030     0.0040 ca         1 BXZ      -0.265900
     12 C9          -0.8140    -0.1060     0.2410 ca         1 BXZ       0.017000
     13 C10         -2.2000    -0.1920     0.0310 ca         1 BXZ      -0.112900
     14 C11         -2.9160     0.9370    -0.4010 ca         1 BXZ       0.222100
     15 C12         -2.2460     2.1490    -0.6030 ca         1 BXZ      -0.265000
     16 C13         -0.8650     2.2390    -0.3880 ca         1 BXZ       0.243100
     17 O3          -0.2680     3.4450    -0.5920 oh         1 BXZ      -0.524100
     18 O4          -4.2620     0.8670    -0.6100 oh         1 BXZ      -0.509100
     19 Br1         -3.0880    -1.8630     0.3530 br         1 BXZ      -0.069100
     20 H1           3.3170    -2.8200    -1.3510 ha         1 BXZ       0.121000
     21 H2           1.2320    -1.4760    -1.0750 ha         1 BXZ       0.129000
     22 H5           5.6170     0.3220     0.5660 ha         1 BXZ       0.155000
     23 HO1          5.5020    -2.9170    -1.0070 ho         1 BXZ       0.474000
     24 H9          -0.2830    -0.9820     0.6060 ha         1 BXZ       0.133000
     25 H12         -2.7920     3.0330    -0.9220 ha         1 BXZ       0.137000
     26 HO3          0.6420     3.3940    -0.2240 ho         1 BXZ       0.499000
     27 HO4         -4.5720     1.7500    -0.9000 ho         1 BXZ       0.477000
@<TRIPOS>BOND
     1     1     2 ar  
     2     1     6 ar  
     3     1    20 1   
     4     2     3 ar  
     5     2    21 1   
     6     3     4 ar  
     7     3    10 1   
     8     4     5 ar  
     9     4     8 1   
    10     5     6 ar  
    11     5    22 1   
    12     6     7 1   
    13     7    23 1   
    14     8     9 1   
    15     9    10 2   
    16    10    11 1   
    17    11    12 ar  
    18    11    16 ar  
    19    12    13 ar  
    20    12    24 1   
    21    13    14 ar  
    22    13    19 1   
    23    14    15 ar  
    24    14    18 1   
    25    15    16 ar  
    26    15    25 1   
    27    16    17 1   
    28    17    26 1   
    29    18    27 1   
@<TRIPOS>SUBSTRUCTURE
     1 BXZ         1 TEMP              0 ****  ****    0 ROOT
