@<TRIPOS>MOLECULE
BY1
   23    23     1     0     0
SMALL
bcc


@<TRIPOS>ATOM
      1 C12         -1.8610     0.0710     0.4620 ce         1 BY1      -0.297100
      2 C13         -2.7740     0.5740    -0.3610 cf         1 BY1       0.096300
      3 C14         -3.6690     1.5920     0.0760 ch         1 BY1       0.163500
      4 N04         -4.4010     2.4170     0.4050 n1         1 BY1      -0.326800
      5 H1          -1.7300     0.3880     1.4900 h4         1 BY1       0.181000
      6 H4          -2.8860     0.2420    -1.3870 ha         1 BY1       0.178000
      7 S1          -0.7760    -1.2200    -0.0840 sy         1 BY1       1.157200
      8 O2          -0.8290    -2.2630     0.9320 o          1 BY1      -0.592800
      9 O1          -1.1080    -1.5340    -1.4680 o          1 BY1      -0.592800
     10 C1           0.8030    -0.4420    -0.0290 ca         1 BY1      -0.284500
     11 C2           1.5800    -0.5590     1.1160 ca         1 BY1      -0.026000
     12 C3           2.8170     0.0630     1.1500 ca         1 BY1      -0.149500
     13 C4           3.2880     0.7940     0.0610 ca         1 BY1      -0.012300
     14 C5           2.4820     0.8960    -1.0740 ca         1 BY1      -0.149500
     15 C6           1.2440     0.2830    -1.1300 ca         1 BY1      -0.026000
     16 C7           4.6400     1.4360     0.0940 c3         1 BY1      -0.060800
     17 H2           1.2360    -1.1240     1.9710 ha         1 BY1       0.155000
     18 H3           3.4270    -0.0240     2.0410 ha         1 BY1       0.138500
     19 H5           2.8290     1.4630    -1.9290 ha         1 BY1       0.138500
     20 H6           0.6360     0.3710    -2.0210 ha         1 BY1       0.155000
     21 H7           5.3880     0.7650    -0.3320 hc         1 BY1       0.051700
     22 H8           4.6600     2.3560    -0.4890 hc         1 BY1       0.051700
     23 H9           4.9510     1.6650     1.1130 hc         1 BY1       0.051700
@<TRIPOS>BOND
     1     1     2 2   
     2     1     5 1   
     3     1     7 1   
     4     2     3 1   
     5     2     6 1   
     6     3     4 3   
     7     7     8 2   
     8     7     9 2   
     9     7    10 1   
    10    10    11 ar  
    11    10    15 ar  
    12    11    12 ar  
    13    11    17 1   
    14    12    13 ar  
    15    12    18 1   
    16    13    14 ar  
    17    13    16 1   
    18    14    15 ar  
    19    14    19 1   
    20    15    20 1   
    21    16    21 1   
    22    16    22 1   
    23    16    23 1   
@<TRIPOS>SUBSTRUCTURE
     1 BY1         1 TEMP              0 ****  ****    0 ROOT
