@<TRIPOS>MOLECULE
BY1
   23    23     1     0     0
SMALL
No Charge or Current Charge


@<TRIPOS>ATOM
      1 C12         -1.9510    -0.1760     0.5390 ce         1 BY1      -0.347100
      2 C13         -2.4590     0.7930    -0.2800 cf         1 BY1       0.046300
      3 C14         -3.3460     1.8200     0.1640 ch         1 BY1       0.252700
      4 N04         -4.0690     2.6450     0.5650 n1         1 BY1      -0.416000
      5 H1          -2.1560    -0.2750     1.6040 h4         1 BY1       0.231000
      6 H4          -2.1970     0.8200    -1.3390 ha         1 BY1       0.228000
      7 S1          -0.8420    -1.4160    -0.0940 sy         1 BY1       1.015600
      8 O2          -0.7930    -2.5050     0.8890 o          1 BY1      -0.522000
      9 O1          -1.1950    -1.6630    -1.4980 o          1 BY1      -0.522000
     10 C1           0.7410    -0.5510    -0.0580 ca         1 BY1      -0.284500
     11 C2           1.4940    -0.5120     1.1330 ca         1 BY1      -0.008000
     12 C3           2.7220     0.1710     1.1660 ca         1 BY1      -0.131500
     13 C4           3.2080     0.8220     0.0180 ca         1 BY1      -0.012300
     14 C5           2.4550     0.7820    -1.1690 ca         1 BY1      -0.131500
     15 C6           1.2250     0.1010    -1.2110 ca         1 BY1      -0.008000
     16 C7           4.5390     1.5570     0.0570 c3         1 BY1      -0.060800
     17 H2           1.1340    -1.0060     2.0350 ha         1 BY1       0.137000
     18 H3           3.2970     0.1940     2.0900 ha         1 BY1       0.120500
     19 H5           2.8210     1.2790    -2.0650 ha         1 BY1       0.120500
     20 H6           0.6580     0.0850    -2.1410 ha         1 BY1       0.137000
     21 H7           5.3630     0.8870    -0.2160 hc         1 BY1       0.051700
     22 H8           4.5490     2.4030    -0.6400 hc         1 BY1       0.051700
     23 H9           4.7470     1.9550     1.0580 hc         1 BY1       0.051700
@<TRIPOS>BOND
     1     1     2 2   
     2     1     5 1   
     3     1     7 1   
     4     2     3 1   
     5     2     6 1   
     6     3     4 3   
     7     7     8 2   
     8     7     9 2   
     9     7    10 1   
    10    10    11 ar  
    11    10    15 ar  
    12    11    12 ar  
    13    11    17 1   
    14    12    13 ar  
    15    12    18 1   
    16    13    14 ar  
    17    13    16 1   
    18    14    15 ar  
    19    14    19 1   
    20    15    20 1   
    21    16    21 1   
    22    16    22 1   
    23    16    23 1   
@<TRIPOS>SUBSTRUCTURE
     1 BY1         1 TEMP              0 ****  ****    0 ROOT
