@<TRIPOS>MOLECULE
BY2
   41    41     1     0     0
SMALL
No Charge or Current Charge


@<TRIPOS>ATOM
      1 C10          4.3790     2.7080     0.6010 c3         1 BY2       0.150100
      2 C11         -2.7660    -0.2680    -0.7200 c          1 BY2       0.637100
      3 C12         -5.2220     0.1880    -1.0040 c3         1 BY2       0.113000
      4 C13         -6.1300    -0.7510    -0.1910 c3         1 BY2      -0.118100
      5 C14         -3.8830     1.4730     0.7220 c3         1 BY2       0.104300
      6 C01          2.1410    -1.6220    -0.2180 ca         1 BY2       0.139100
      7 C02          1.0040    -2.4390    -0.1060 ca         1 BY2      -0.199000
      8 C03         -0.2780    -1.8660    -0.0380 ca         1 BY2      -0.067000
      9 C04         -0.4240    -0.4670    -0.0950 ca         1 BY2       0.077100
     10 C05          0.7130     0.3500    -0.1900 ca         1 BY2      -0.053000
     11 C06          2.0070    -0.2130    -0.2550 ca         1 BY2      -0.104300
     12 C07          3.2240     0.7170    -0.3740 c3         1 BY2       0.233800
     13 C08          3.2530     1.3090    -1.8040 c3         1 BY2      -0.088100
     14 C09          3.1770     1.1660     2.0680 c3         1 BY2       0.150100
     15 N01          3.2480     1.7530     0.7060 n3         1 BY2      -0.718600
     16 N02         -3.9240     0.4410    -0.3400 n          1 BY2      -0.403800
     17 O01         -1.6630     0.1260    -0.0080 os         1 BY2      -0.362200
     18 O02          3.3690    -2.2150    -0.2900 oh         1 BY2      -0.536100
     19 O03         -2.7540    -1.1230    -1.5950 o          1 BY2      -0.525000
     20 H1           4.3240     3.2940    -0.3260 h1         1 BY2       0.030867
     21 H2           4.3620     3.4230     1.4350 h1         1 BY2       0.030867
     22 H3           5.3420     2.1800     0.6230 h1         1 BY2       0.030867
     23 H4          -5.0560    -0.2430    -2.0000 h1         1 BY2       0.059200
     24 H5          -5.7380     1.1460    -1.1520 h1         1 BY2       0.059200
     25 H6          -5.6460    -1.7240    -0.0460 hc         1 BY2       0.042367
     26 H7          -6.3500    -0.3220     0.7940 hc         1 BY2       0.042367
     27 H8          -7.0790    -0.9110    -0.7160 hc         1 BY2       0.042367
     28 H9          -3.2000     2.2800     0.4290 h1         1 BY2       0.041033
     29 H10         -4.8820     1.8970     0.8850 h1         1 BY2       0.041033
     30 H11         -3.5340     1.0250     1.6610 h1         1 BY2       0.041033
     31 H12          1.1040    -3.5210    -0.0680 ha         1 BY2       0.114000
     32 H13         -1.1510    -2.5060     0.0620 ha         1 BY2       0.125000
     33 H14          0.5910     1.4300    -0.2120 ha         1 BY2       0.147000
     34 H15          4.1360     0.1130    -0.2750 h1         1 BY2       0.042700
     35 H16          4.2090     1.8010    -2.0150 hc         1 BY2       0.041700
     36 H17          3.1270     0.5120    -2.5460 hc         1 BY2       0.041700
     37 H18          2.4460     2.0370    -1.9440 hc         1 BY2       0.041700
     38 H19          4.0400     0.5130     2.2570 h1         1 BY2       0.030867
     39 H20          3.1720     1.9550     2.8310 h1         1 BY2       0.030867
     40 H21          2.2630     0.5740     2.2040 h1         1 BY2       0.030867
     41 H23          3.2460    -3.1870    -0.2480 ho         1 BY2       0.464000
@<TRIPOS>BOND
     1     1    15 1   
     2     1    20 1   
     3     1    21 1   
     4     1    22 1   
     5     2    16 1   
     6     2    17 1   
     7     2    19 2   
     8     3     4 1   
     9     3    16 1   
    10     3    23 1   
    11     3    24 1   
    12     4    25 1   
    13     4    26 1   
    14     4    27 1   
    15     5    16 1   
    16     5    28 1   
    17     5    29 1   
    18     5    30 1   
    19     6     7 ar  
    20     6    11 ar  
    21     6    18 1   
    22     7     8 ar  
    23     7    31 1   
    24     8     9 ar  
    25     8    32 1   
    26     9    10 ar  
    27     9    17 1   
    28    10    11 ar  
    29    10    33 1   
    30    11    12 1   
    31    12    13 1   
    32    12    15 1   
    33    12    34 1   
    34    13    35 1   
    35    13    36 1   
    36    13    37 1   
    37    14    15 1   
    38    14    38 1   
    39    14    39 1   
    40    14    40 1   
    41    18    41 1   
@<TRIPOS>SUBSTRUCTURE
     1 BY2         1 TEMP              0 ****  ****    0 ROOT
