@<TRIPOS>MOLECULE
BY2
   41    41     1     0     0
SMALL
bcc


@<TRIPOS>ATOM
      1 C10          3.9180     2.8200     0.0850 c3         1 BY2       0.150100
      2 C11         -2.5440     0.0460    -0.4400 c          1 BY2       0.753100
      3 C12         -4.7830     0.7270    -1.0100 c3         1 BY2       0.113000
      4 C13         -5.7190    -0.4710    -0.9920 c3         1 BY2      -0.118100
      5 C14         -3.9670     0.9330     1.3420 c3         1 BY2       0.104300
      6 C01          2.0570    -1.7360    -0.0820 ca         1 BY2       0.139100
      7 C02          0.9490    -2.5540     0.1240 ca         1 BY2      -0.217000
      8 C03         -0.3060    -2.0060     0.3320 ca         1 BY2      -0.085000
      9 C04         -0.4450    -0.6290     0.3320 ca         1 BY2       0.077100
     10 C05          0.6510     0.1890     0.1330 ca         1 BY2      -0.071000
     11 C06          1.9190    -0.3460    -0.0660 ca         1 BY2      -0.104300
     12 C07          3.0970     0.5710    -0.3340 c3         1 BY2       0.233800
     13 C08          3.1440     0.8590    -1.8350 c3         1 BY2      -0.088100
     14 C09          3.1420     1.4790     1.8800 c3         1 BY2       0.150100
     15 N01          2.9820     1.7840     0.4710 n3         1 BY2      -0.718600
     16 N02         -3.6960     0.6140    -0.0500 n          1 BY2      -0.470800
     17 O01         -1.6740    -0.0550     0.5920 os         1 BY2      -0.362200
     18 O02          3.2860    -2.2510    -0.3040 oh         1 BY2      -0.497100
     19 O03         -2.2750    -0.3300    -1.5620 o          1 BY2      -0.574000
     20 H1           3.7170     3.1830    -0.9220 h1         1 BY2       0.030867
     21 H2           3.8080     3.6690     0.7610 h1         1 BY2       0.030867
     22 H3           4.9700     2.4970     0.1290 h1         1 BY2       0.030867
     23 H4          -4.3640     0.8660    -2.0050 h1         1 BY2       0.059200
     24 H5          -5.3350     1.6380    -0.7750 h1         1 BY2       0.059200
     25 H6          -5.1910    -1.3860    -1.2630 hc         1 BY2       0.042367
     26 H7          -6.1670    -0.6150    -0.0080 hc         1 BY2       0.042367
     27 H8          -6.5290    -0.3250    -1.7070 hc         1 BY2       0.042367
     28 H9          -3.2670     1.6710     1.7330 h1         1 BY2       0.041033
     29 H10         -4.9640     1.3620     1.4030 h1         1 BY2       0.041033
     30 H11         -3.9410     0.0530     1.9840 h1         1 BY2       0.041033
     31 H12          1.0640    -3.6320     0.1220 ha         1 BY2       0.132000
     32 H13         -1.1600    -2.6500     0.4970 ha         1 BY2       0.143000
     33 H14          0.5350     1.2660     0.1510 ha         1 BY2       0.165000
     34 H15          4.0290     0.0440    -0.0710 h1         1 BY2       0.042700
     35 H16          4.0590     1.3710    -2.1290 hc         1 BY2       0.041700
     36 H17          3.1080    -0.0780    -2.3900 hc         1 BY2       0.041700
     37 H18          2.2900     1.4640    -2.1440 hc         1 BY2       0.041700
     38 H19          4.1400     1.0770     2.1180 h1         1 BY2       0.030867
     39 H20          2.9970     2.3820     2.4740 h1         1 BY2       0.030867
     40 H21          2.4040     0.7480     2.2070 h1         1 BY2       0.030867
     41 H23          3.2550    -3.2140    -0.2770 ho         1 BY2       0.425000
@<TRIPOS>BOND
     1     1    15 1   
     2     1    20 1   
     3     1    21 1   
     4     1    22 1   
     5     2    16 1   
     6     2    17 1   
     7     2    19 2   
     8     3     4 1   
     9     3    16 1   
    10     3    23 1   
    11     3    24 1   
    12     4    25 1   
    13     4    26 1   
    14     4    27 1   
    15     5    16 1   
    16     5    28 1   
    17     5    29 1   
    18     5    30 1   
    19     6     7 ar  
    20     6    11 ar  
    21     6    18 1   
    22     7     8 ar  
    23     7    31 1   
    24     8     9 ar  
    25     8    32 1   
    26     9    10 ar  
    27     9    17 1   
    28    10    11 ar  
    29    10    33 1   
    30    11    12 1   
    31    12    13 1   
    32    12    15 1   
    33    12    34 1   
    34    13    35 1   
    35    13    36 1   
    36    13    37 1   
    37    14    15 1   
    38    14    38 1   
    39    14    39 1   
    40    14    40 1   
    41    18    41 1   
@<TRIPOS>SUBSTRUCTURE
     1 BY2         1 TEMP              0 ****  ****    0 ROOT
