@<TRIPOS>MOLECULE
BY4
   22    23     1     0     0
SMALL
No Charge or Current Charge


@<TRIPOS>ATOM
      1 C01          1.6620     2.3650     0.3100 c3         1 BY4      -0.050800
      2 C02          1.4990     0.8610     0.1290 ca         1 BY4      -0.016300
      3 C03          2.6390     0.0320     0.0080 ca         1 BY4      -0.142000
      4 C04          2.5100    -1.3690    -0.1350 ca         1 BY4      -0.070000
      5 C05          1.2340    -1.9650    -0.1510 ca         1 BY4      -0.150000
      6 C06          0.1230    -1.1250    -0.0360 ca         1 BY4      -0.015000
      7 C07          0.2290     0.2490     0.0850 ca         1 BY4      -0.141300
      8 C08         -1.1710     0.8620     0.2020 c5         1 BY4       0.127800
      9 C09         -2.1180    -0.4230     0.1560 c          1 BY4       0.571000
     10 N10         -1.2240    -1.4600     0.0050 ns         1 BY4      -0.143000
     11 O11         -3.3410    -0.5180     0.2150 o          1 BY4      -0.527000
     12 N12         -1.3760     1.8720    -0.8800 n8         1 BY4      -0.974200
     13 H011         1.5260     2.8910    -0.6410 hc         1 BY4       0.044700
     14 H012         0.9340     2.7620     1.0270 hc         1 BY4       0.044700
     15 H013         2.6600     2.6160     0.6890 hc         1 BY4       0.044700
     16 H03          3.6330     0.4730     0.0310 ha         1 BY4       0.115000
     17 H04          3.3990    -1.9890    -0.2220 ha         1 BY4       0.115000
     18 H05          1.1190    -3.0430    -0.2460 ha         1 BY4       0.123000
     19 H10         -1.5330    -2.4210    -0.0620 hn         1 BY4       0.174000
     20 H08         -1.3000     1.3500     1.1790 h1         1 BY4       0.058700
     21 H121        -2.3010     2.3080    -0.7720 hn         1 BY4       0.405500
     22 H122        -0.7210     2.6500    -0.7440 hn         1 BY4       0.405500
@<TRIPOS>BOND
     1     1     2 1   
     2     1    13 1   
     3     1    14 1   
     4     1    15 1   
     5     2     3 ar  
     6     2     7 ar  
     7     3     4 ar  
     8     3    16 1   
     9     4     5 ar  
    10     4    17 1   
    11     5     6 ar  
    12     5    18 1   
    13     6     7 ar  
    14     6    10 1   
    15     7     8 1   
    16     8     9 1   
    17     8    12 1   
    18     8    20 1   
    19     9    10 1   
    20     9    11 2   
    21    10    19 1   
    22    12    21 1   
    23    12    22 1   
@<TRIPOS>SUBSTRUCTURE
     1 BY4         1 TEMP              0 ****  ****    0 ROOT
