@<TRIPOS>MOLECULE
BY4
   22    23     1     0     0
SMALL
abcg2


@<TRIPOS>ATOM
      1 C01          1.6800     2.3470     0.3180 c3         1 BY4      -0.050800
      2 C02          1.5140     0.8660     0.1500 ca         1 BY4      -0.016300
      3 C03          2.6260     0.0230     0.0300 ca         1 BY4      -0.142000
      4 C04          2.4780    -1.3490    -0.1180 ca         1 BY4      -0.070000
      5 C05          1.2200    -1.9440    -0.1470 ca         1 BY4      -0.150000
      6 C06          0.1290    -1.1040    -0.0300 ca         1 BY4      -0.015000
      7 C07          0.2630     0.2750     0.1070 ca         1 BY4      -0.141300
      8 C08         -1.1090     0.8780     0.2230 c5         1 BY4       0.127800
      9 C09         -2.0180    -0.3510     0.1170 c          1 BY4       0.571000
     10 N10         -1.2200    -1.4410    -0.0150 ns         1 BY4      -0.143000
     11 O11         -3.2310    -0.3460     0.1300 o          1 BY4      -0.527000
     12 N12         -1.4400     1.7820    -0.8680 n8         1 BY4      -0.974200
     13 H011         1.4540     2.8820    -0.6060 hc         1 BY4       0.044700
     14 H012         1.0190     2.7420     1.0910 hc         1 BY4       0.044700
     15 H013         2.7020     2.5990     0.5950 hc         1 BY4       0.044700
     16 H03          3.6200     0.4510     0.0630 ha         1 BY4       0.115000
     17 H04          3.3580    -1.9720    -0.2060 ha         1 BY4       0.115000
     18 H05          1.1060    -3.0150    -0.2500 ha         1 BY4       0.123000
     19 H10         -1.5730    -2.3810    -0.1100 hn         1 BY4       0.174000
     20 H08         -1.2500     1.3150     1.2240 h1         1 BY4       0.058700
     21 H121        -2.3900     2.1130    -0.7420 hn         1 BY4       0.405500
     22 H122        -0.8580     2.6080    -0.8100 hn         1 BY4       0.405500
@<TRIPOS>BOND
     1     1     2 1   
     2     1    13 1   
     3     1    14 1   
     4     1    15 1   
     5     2     3 ar  
     6     2     7 ar  
     7     3     4 ar  
     8     3    16 1   
     9     4     5 ar  
    10     4    17 1   
    11     5     6 ar  
    12     5    18 1   
    13     6     7 ar  
    14     6    10 1   
    15     7     8 1   
    16     8     9 1   
    17     8    12 1   
    18     8    20 1   
    19     9    10 1   
    20     9    11 2   
    21    10    19 1   
    22    12    21 1   
    23    12    22 1   
@<TRIPOS>SUBSTRUCTURE
     1 BY4         1 TEMP              0 ****  ****    0 ROOT
