@<TRIPOS>MOLECULE
BY5
   19    19     1     0     0
SMALL
bcc


@<TRIPOS>ATOM
      1 C4           1.3920    -1.6360    -0.1310 ca         1 BY5       0.141900
      2 C5           2.7490    -1.5700    -0.3630 ca         1 BY5      -0.176000
      3 C6           3.4020    -0.3580    -0.1780 ca         1 BY5      -0.148000
      4 C7           2.6830     0.7420     0.2320 ca         1 BY5       0.065900
      5 C8           1.3200     0.6480     0.4590 ca         1 BY5       0.116900
      6 C           -3.2540    -0.1790     0.3030 c          1 BY5       0.932800
      7 O           -3.5060    -0.9550     1.2360 o          1 BY5      -0.799300
      8 C1          -1.7860    -0.0250    -0.1040 ce         1 BY5       0.016400
      9 C3           0.6320    -0.5440     0.2750 ca         1 BY5      -0.063800
     10 F            0.7560    -2.8000    -0.3100 f          1 BY5      -0.129900
     11 F1           0.6630     1.7300     0.8750 f          1 BY5      -0.108900
     12 F2           3.2900     1.9170     0.4280 f          1 BY5      -0.138900
     13 O1          -4.0450     0.5170    -0.3570 o          1 BY5      -0.799300
     14 S           -1.6200     1.0590    -1.4740 sh         1 BY5      -0.272400
     15 H1           3.2940    -2.4460    -0.6860 ha         1 BY5       0.143000
     16 H2           4.4670    -0.2730    -0.3520 ha         1 BY5       0.140000
     17 H3          -1.1050    -1.3470     1.3280 ha         1 BY5       0.174000
     18 H5          -0.3120     0.8820    -1.7080 hs         1 BY5       0.121800
     19 C2          -0.8080    -0.6650     0.5390 cf         1 BY5      -0.216200
@<TRIPOS>BOND
     1     1     2 ar  
     2     1     9 ar  
     3     1    10 1   
     4     2     3 ar  
     5     2    15 1   
     6     3     4 ar  
     7     3    16 1   
     8     4     5 ar  
     9     4    12 1   
    10     5     9 ar  
    11     5    11 1   
    12     6     7 1   
    13     6     8 1   
    14     6    13 1   
    15     8    14 1   
    16     8    19 2   
    17     9    19 1   
    18    14    18 1   
    19    17    19 1   
@<TRIPOS>SUBSTRUCTURE
     1 BY5         1 TEMP              0 ****  ****    0 ROOT
