@<TRIPOS>MOLECULE
BY5
   19    19     1     0     0
SMALL
No Charge or Current Charge


@<TRIPOS>ATOM
      1 C4           1.3820    -1.6970    -0.0840 ca         1 BY5       0.177000
      2 C5           2.7680    -1.6210    -0.3040 ca         1 BY5      -0.158000
      3 C6           3.4320    -0.3870    -0.1960 ca         1 BY5      -0.130000
      4 C7           2.7040     0.7640     0.1430 ca         1 BY5       0.101000
      5 C8           1.3140     0.6900     0.3630 ca         1 BY5       0.152000
      6 C           -3.3250    -0.2320     0.2930 c          1 BY5       0.722200
      7 O           -3.5630    -1.0680     1.1580 o          1 BY5      -0.694000
      8 C1          -1.8700     0.0290    -0.1010 ce         1 BY5       0.016400
      9 C3           0.6310    -0.5440     0.2340 ca         1 BY5      -0.063800
     10 F            0.7680    -2.8970    -0.1950 f          1 BY5      -0.165000
     11 F1           0.6450     1.8040     0.7440 f          1 BY5      -0.144000
     12 F2           3.3520     1.9450     0.2690 f          1 BY5      -0.174000
     13 O1          -4.2140     0.4010    -0.2630 o          1 BY5      -0.694000
     14 S           -1.5420     1.2560    -1.4060 sh         1 BY5      -0.272400
     15 H1           3.3250    -2.5200    -0.5570 ha         1 BY5       0.125000
     16 H2           4.5050    -0.3230    -0.3630 ha         1 BY5       0.122000
     17 H3          -1.0820    -1.4270     1.2030 ha         1 BY5       0.224000
     18 H5          -0.1930     1.1830    -1.3930 hs         1 BY5       0.121800
     19 C2          -0.8280    -0.6600     0.4670 cf         1 BY5      -0.266200
@<TRIPOS>BOND
     1     1     2 ar  
     2     1     9 ar  
     3     1    10 1   
     4     2     3 ar  
     5     2    15 1   
     6     3     4 ar  
     7     3    16 1   
     8     4     5 ar  
     9     4    12 1   
    10     5     9 ar  
    11     5    11 1   
    12     6     7 1   
    13     6     8 1   
    14     6    13 1   
    15     8    14 1   
    16     8    19 2   
    17     9    19 1   
    18    14    18 1   
    19    17    19 1   
@<TRIPOS>SUBSTRUCTURE
     1 BY5         1 TEMP              0 ****  ****    0 ROOT
