@<TRIPOS>MOLECULE
BY6
  199   204     1     0     0
SMALL
bcc


@<TRIPOS>ATOM
      1 NA          13.8960    63.7040    17.7790 nt         1 BY6      -0.687000
      2 C2          13.5570    61.3180    18.1840 c3         1 BY6       0.153500
      3 C1          14.3950    62.5940    18.3500 c          1 BY6       0.654100
      4 O1          15.4230    62.6100    19.0070 o          1 BY6      -0.593100
      5 NC          15.4920    59.9610    17.5180 n7         1 BY6      -0.788200
      6 C3          14.3930    60.0670    18.4620 c3         1 BY6       0.166800
      7 NB          12.8840    61.1930    16.9140 n8         1 BY6      -1.029800
      8 C5          16.3290    57.8890    18.5470 c3         1 BY6      -0.150400
      9 C4          17.3510    58.6430    19.3750 c          1 BY6       0.698100
     10 O4          18.3090    59.2300    18.8860 o          1 BY6      -0.637100
     11 C8          14.1210    55.8670    15.6750 ca         1 BY6       0.673200
     12 C9          13.5690    56.4870    14.5180 ca         1 BY6      -0.306900
     13 C10         13.8190    57.8430    14.4280 ca         1 BY6       0.434800
     14 NG          14.5660    58.4910    15.3280 nb         1 BY6      -0.745000
     15 C7          15.0600    57.8190    16.3450 ca         1 BY6       0.671300
     16 NE          14.8590    56.5310    16.5620 nb         1 BY6      -0.784000
     17 C6          15.9790    58.6180    17.2610 c3         1 BY6       0.153200
     18 CA          12.7760    55.6440    13.5690 c3         1 BY6      -0.040800
     19 C12         13.3050    58.7430    13.3180 c          1 BY6       0.575600
     20 O12         12.6690    58.3430    12.3570 o          1 BY6      -0.622100
     21 NH          13.6360    60.0360    13.4840 ns         1 BY6      -0.551900
     22 C13         13.2430    61.0530    12.5490 c3         1 BY6       0.026700
     23 C30         14.1740    61.1880    11.3360 c          1 BY6       0.659100
     24 O30         13.8470    61.9140    10.4080 o          1 BY6      -0.617100
     25 C14         13.1350    62.4530    13.1840 c3         1 BY6       0.126800
     26 C27         14.3760    62.9050    13.8760 cc         1 BY6       0.254600
     27 OH1         12.0370    62.5160    14.0890 os         1 BY6      -0.428600
     28 NJ          15.0780    62.1170    14.7520 nc         1 BY6      -0.703000
     29 C28         14.9530    64.1420    13.8150 cd         1 BY6      -0.224600
     30 C29         16.0540    62.8600    15.2080 cd         1 BY6       0.417400
     31 NI          16.0120    64.0910    14.6690 na         1 BY6      -0.294900
     32 NK          15.3190    60.5030    11.3970 ns         1 BY6      -0.555900
     33 C34         17.6130    62.2530    11.8180 c3         1 BY6      -0.161700
     34 C36         18.8690    62.3720    12.6720 c          1 BY6       0.677100
     35 O36         19.7610    63.1800    12.4630 o          1 BY6      -0.603100
     36 OH2         18.7180    60.9840    10.0660 oh         1 BY6      -0.572800
     37 C31         16.3430    60.5260    10.3770 c3         1 BY6       0.072700
     38 CB          16.4510    59.1650     9.6850 c3         1 BY6      -0.110100
     39 C33         17.6800    60.9350    11.0150 c3         1 BY6       0.144100
     40 CC          17.3960    63.4850    10.9570 c3         1 BY6      -0.076100
     41 NL          18.9220    61.5030    13.7000 ns         1 BY6      -0.560900
     42 C37         20.0840    61.3470    14.5380 c3         1 BY6       0.031700
     43 C40         21.3020    61.0030    13.6830 c          1 BY6       0.661100
     44 O40         21.2350    60.1550    12.8080 o          1 BY6      -0.590100
     45 C38         19.8320    60.1710    15.5050 c3         1 BY6       0.146100
     46 OH3         18.5800    60.3610    16.1200 oh         1 BY6      -0.630800
     47 CD          20.9450    59.9890    16.5200 c3         1 BY6      -0.133100
     48 NM          22.4380    61.6280    14.0270 ns         1 BY6      -0.568900
     49 O49         33.4450    61.4970    11.7540 o          1 BY6      -0.603100
     50 C43         25.7740    59.8900    13.7690 cc         1 BY6       0.438700
     51 C41         23.7210    61.2960    13.4620 c3         1 BY6       0.106000
     52 S43         26.0270    58.2940    13.1510 ss         1 BY6      -0.133300
     53 C44         27.6150    58.7200    12.7050 cc         1 BY6      -0.166400
     54 C45         27.8390    60.0230    13.0380 cd         1 BY6       0.296300
     55 NN          26.7980    60.6690    13.6360 nd         1 BY6      -0.646000
     56 C47         30.8650    62.3570    12.7300 cd         1 BY6      -0.161400
     57 C48         31.1620    61.1200    12.2450 cc         1 BY6       0.282800
     58 NO          30.1460    60.2150    12.2980 nc         1 BY6      -0.653000
     59 C46         29.0820    60.7330    12.8210 cd         1 BY6       0.394400
     60 S46         29.2520    62.3890    13.2870 ss         1 BY6      -0.072300
     61 NP          32.5630    59.4570    11.2940 ns         1 BY6      -0.564900
     62 O59          8.9770    65.8380    14.5530 oh         1 BY6      -0.581800
     63 O58         10.6520    63.3930    16.6850 oh         1 BY6      -0.591800
     64 C61         11.5930    66.7100    13.8240 c3         1 BY6       0.148400
     65 O61         12.8630    66.7900    13.2180 oh         1 BY6      -0.603800
     66 O56          9.6320    61.5880    14.8710 os         1 BY6      -0.412600
     67 C60         11.2860    65.3220    14.3630 c6         1 BY6       0.110100
     68 O62         11.0980    64.4650    13.2430 os         1 BY6      -0.419600
     69 C63         10.8970    63.1160    13.5300 c6         1 BY6       0.324900
     70 C57          9.7030    62.9340    14.4710 c6         1 BY6       0.097100
     71 C58          9.7610    63.8500    15.6990 c6         1 BY6       0.107100
     72 C59         10.0630    65.2930    15.2650 c6         1 BY6       0.088100
     73 C69          8.4680    59.6480    15.4990 c6         1 BY6       0.109100
     74 C68          9.4520    58.7140    14.8040 c6         1 BY6       0.146100
     75 C67          9.0080    58.4510    13.3670 c6         1 BY6       0.138100
     76 C65          8.9940    59.8160    12.6660 c6         1 BY6       0.064100
     77 O64          8.1250    60.7100    13.3490 os         1 BY6      -0.425600
     78 C64          8.4070    60.9500    14.6960 c6         1 BY6       0.318900
     79 O68          9.5600    57.4650    15.4690 os         1 BY6      -0.410900
     80 O67          9.8920    57.5250    12.7940 oh         1 BY6      -0.589800
     81 O69          7.1920    59.0590    15.5330 oh         1 BY6      -0.576800
     82 C70         10.4690    57.3700    16.4530 c          1 BY6       0.751100
     83 O70         11.0550    58.3200    16.9310 o          1 BY6      -0.595000
     84 HNA         13.0000    63.7320    17.3280 hn         1 BY6       0.306000
     85 HNAA        14.3930    64.5760    17.8590 hn         1 BY6       0.306000
     86 H2          12.8060    61.3740    18.9820 h1         1 BY6       0.051700
     87 HNC         15.1960    60.3510    16.6310 hn         1 BY6       0.398800
     88 H3          14.7730    60.0860    19.4880 h1         1 BY6       0.041700
     89 H3A         13.6940    59.2210    18.4060 h1         1 BY6       0.041700
     90 HNB         11.8960    61.0130    16.9510 hn         1 BY6       0.407800
     91 HNBA        13.1650    61.7760    16.1460 hn         1 BY6       0.407800
     92 HND         16.3890    58.0750    21.1050 hn         1 BY6       0.311500
     93 HNDA        17.8240    58.9950    21.3310 hn         1 BY6       0.311500
     94 H5          16.7700    56.9200    18.3010 hc         1 BY6       0.066200
     95 H5A         15.4380    57.6680    19.1370 hc         1 BY6       0.066200
     96 H6          16.9060    58.7220    16.6890 h1         1 BY6       0.097700
     97 HNF         13.6320    53.9370    15.2090 hn         1 BY6       0.423300
     98 HNFA        14.4310    54.1600    16.6820 hn         1 BY6       0.423300
     99 HA          11.8270    55.3480    14.0230 hc         1 BY6       0.054700
    100 HAA         12.5630    56.1610    12.6430 hc         1 BY6       0.054700
    101 HAB         13.3170    54.7300    13.3160 hc         1 BY6       0.054700
    102 HNH         14.1970    60.2940    14.2920 hn         1 BY6       0.391500
    103 H13         12.2630    60.7990    12.1330 h1         1 BY6       0.089700
    104 H14         12.9490    63.1390    12.3540 h1         1 BY6       0.083700
    105 H28         14.7180    65.0220    13.2430 h4         1 BY6       0.193000
    106 H29         16.8090    62.5490    15.9110 h5         1 BY6       0.090100
    107 HNI         16.6500    64.8490    14.8540 hn         1 BY6       0.313700
    108 HNK         15.4880    59.9280    12.2080 hn         1 BY6       0.326500
    109 H34         16.7710    62.1530    12.5090 hc         1 BY6       0.066700
    110 HOH2        18.3620    61.1840     9.1940 ho         1 BY6       0.403000
    111 H31         16.0390    61.2720     9.6400 h1         1 BY6       0.084700
    112 HB          16.9300    59.2490     8.7100 hc         1 BY6       0.047700
    113 HBA         17.0210    58.4500    10.2810 hc         1 BY6       0.047700
    114 HBB         15.4570    58.7510     9.5160 hc         1 BY6       0.047700
    115 H33         17.9370    60.1290    11.7140 h1         1 BY6       0.065700
    116 HC          17.2610    64.3700    11.5790 hc         1 BY6       0.043700
    117 HCA         18.2330    63.6710    10.2860 hc         1 BY6       0.043700
    118 HCB         16.4950    63.3850    10.3530 hc         1 BY6       0.043700
    119 HNL         18.1480    60.8750    13.8440 hn         1 BY6       0.333500
    120 H37         20.2630    62.2580    15.1210 h1         1 BY6       0.061700
    121 H38         19.7790    59.2640    14.8870 h1         1 BY6       0.057700
    122 HOH3        18.6420    60.2460    17.0780 ho         1 BY6       0.458000
    123 HD          21.9160    59.8560    16.0480 hc         1 BY6       0.049367
    124 HDA         21.0180    60.8570    17.1790 hc         1 BY6       0.049367
    125 HDB         20.7520    59.1100    17.1350 hc         1 BY6       0.049367
    126 HNM         22.4090    62.3310    14.7490 hn         1 BY6       0.317500
    127 H42         23.8420    59.4170    14.5150 hc         1 BY6       0.064700
    128 H42A        24.6480    60.7480    15.3330 hc         1 BY6       0.064700
    129 H41         23.5740    60.8790    12.4670 h1         1 BY6       0.071200
    130 H41A        24.3060    62.2090    13.3510 h1         1 BY6       0.071200
    131 H44         28.2990    58.0230    12.2460 h4         1 BY6       0.194000
    132 HNP         31.6990    58.9410    11.2350 hn         1 BY6       0.336500
    133 HO59         8.2250    65.9100    15.1490 ho         1 BY6       0.408000
    134 HO58        11.4870    63.1380    16.2790 ho         1 BY6       0.422000
    135 H61         11.5930    67.4090    14.6640 h1         1 BY6       0.060700
    136 H61A        10.8010    67.0320    13.1420 h1         1 BY6       0.060700
    137 HO61        12.7950    66.4700    12.3150 ho         1 BY6       0.415000
    138 H60         12.1570    65.0000    14.9510 h1         1 BY6       0.059700
    139 H63         10.6710    62.6490    12.5630 h2         1 BY6       0.081700
    140 H57          8.8240    63.2300    13.8880 h1         1 BY6       0.081700
    141 H58          8.7740    63.8390    16.1770 h1         1 BY6       0.071700
    142 H59         10.2920    65.8780    16.1660 h1         1 BY6       0.055700
    143 H69          8.8270    59.8850    16.5050 h1         1 BY6       0.077700
    144 H68         10.4350    59.1920    14.7730 h1         1 BY6       0.091700
    145 H67          7.9880    58.0430    13.3530 h1         1 BY6       0.086700
    146 H65         10.0220    60.2080    12.6600 h1         1 BY6       0.054700
    147 H64          7.5770    61.5710    15.0550 h2         1 BY6       0.077700
    148 HO67        10.2560    57.8460    11.9650 ho         1 BY6       0.425000
    149 HO69         6.8570    59.0900    16.4320 ho         1 BY6       0.412000
    150 C50         33.7900    58.8070    10.8830 c3         1 BY6       0.114000
    151 C52         34.6920    58.4600    12.0640 c3         1 BY6      -0.103400
    152 C53         34.0190    57.5240    13.0560 c3         1 BY6       0.161800
    153 N18         34.8800    57.2510    14.1890 n7         1 BY6      -0.805200
    154 C54         34.2640    56.3840    15.1750 c3         1 BY6       0.161800
    155 C55         35.1880    56.1360    16.3570 c3         1 BY6      -0.079400
    156 C56         34.5450    55.2690    17.4300 c3         1 BY6      -0.078400
    157 C571        35.4540    55.0590    18.6300 c3         1 BY6       0.159800
    158 N19         34.8300    54.2170    19.6340 n7         1 BY6      -0.806200
    159 C581        35.6820    53.9870    20.7850 c3         1 BY6       0.159800
    160 C591        34.9870    53.1330    21.8320 c3         1 BY6      -0.083400
    161 C601        35.8650    52.8790    23.0470 c3         1 BY6       0.150800
    162 N20         35.1780    52.0400    24.0180 n8         1 BY6      -0.885800
    163 H50         33.5040    57.8940    10.3620 h1         1 BY6       0.048700
    164 H50A        34.3270    59.4340    10.1690 h1         1 BY6       0.048700
    165 H75         35.5990    57.9910    11.6710 hc         1 BY6       0.060200
    166 H76         35.0110    59.3690    12.5770 hc         1 BY6       0.060200
    167 H77         33.1030    57.9920    13.4320 h1         1 BY6       0.028200
    168 H78         33.6990    56.6070    12.5320 h1         1 BY6       0.028200
    169 H79         35.7310    56.8110    13.8570 hn         1 BY6       0.347800
    170 H80         33.3510    56.8720    15.5320 h1         1 BY6       0.027700
    171 H81         33.9470    55.4170    14.7510 h1         1 BY6       0.027700
    172 H82         36.1100    55.6590    16.0070 hc         1 BY6       0.045700
    173 H83         35.4800    57.1000    16.7850 hc         1 BY6       0.045700
    174 H84         33.6110    55.7360    17.7620 hc         1 BY6       0.044700
    175 H85         34.2740    54.2950    17.0120 hc         1 BY6       0.044700
    176 H86         36.3780    54.5710    18.3030 h1         1 BY6       0.028200
    177 H87         35.7570    56.0400    19.0330 h1         1 BY6       0.028200
    178 H88         33.9780    54.6680    19.9480 hn         1 BY6       0.349800
    179 H89         36.5870    53.4760    20.4420 h1         1 BY6       0.026700
    180 H90         36.0220    54.9280    21.2510 h1         1 BY6       0.026700
    181 H91         34.0610    53.6200    22.1550 hc         1 BY6       0.053200
    182 H92         34.7000    52.1780    21.3800 hc         1 BY6       0.053200
    183 H93         36.8260    52.4640    22.7100 h1         1 BY6       0.025200
    184 H94         36.0980    53.8340    23.5260 h1         1 BY6       0.025200
    185 H95         35.0530    51.1140    23.6280 hn         1 BY6       0.337300
    186 H96         35.7670    51.9140    24.8320 hn         1 BY6       0.337300
    187 NF          13.8650    54.5700    15.9550 nv         1 BY6      -0.946500
    188 ND          17.1520    58.5900    20.7000 nt         1 BY6      -0.672000
    189 C66          8.4990    59.7710    11.2310 c3         1 BY6       0.145400
    190 C42         24.4680    60.2970    14.3550 c3         1 BY6      -0.137700
    191 NQ          10.6120    56.0940    16.8440 nt         1 BY6      -0.659000
    192 O66          8.6300    61.0070    10.5670 oh         1 BY6      -0.592800
    193 H47         31.5050    63.2230    12.7940 h4         1 BY6       0.197000
    194 C49         32.5020    60.7180    11.7370 c          1 BY6       0.602600
    195 HNQ         11.3180    55.8660    17.5220 hn         1 BY6       0.328000
    196 HNQA        10.2190    55.3370    16.3110 hn         1 BY6       0.328000
    197 HO66         8.8150    61.7020    11.2060 ho         1 BY6       0.410000
    198 H66          9.0750    59.0250    10.6740 h1         1 BY6       0.054200
    199 H66A         7.4540    59.4370    11.2290 h1         1 BY6       0.054200
@<TRIPOS>BOND
     1     1     3 1   
     2     1    84 1   
     3     1    85 1   
     4     2     3 1   
     5     2     6 1   
     6     2     7 1   
     7     2    86 1   
     8     3     4 2   
     9     5     6 1   
    10     5    17 1   
    11     5    87 1   
    12     6    88 1   
    13     6    89 1   
    14     7    90 1   
    15     7    91 1   
    16     8     9 1   
    17     8    17 1   
    18     8    94 1   
    19     8    95 1   
    20     9    10 2   
    21     9   188 1   
    22    11    12 ar  
    23    11    16 ar  
    24    11   187 1   
    25    12    13 ar  
    26    12    18 1   
    27    13    14 ar  
    28    13    19 1   
    29    14    15 ar  
    30    15    16 ar  
    31    15    17 1   
    32    17    96 1   
    33    18    99 1   
    34    18   100 1   
    35    18   101 1   
    36    19    20 2   
    37    19    21 1   
    38    21    22 1   
    39    21   102 1   
    40    22    23 1   
    41    22    25 1   
    42    22   103 1   
    43    23    24 2   
    44    23    32 1   
    45    25    26 1   
    46    25    27 1   
    47    25   104 1   
    48    26    28 1   
    49    26    29 2   
    50    27    69 1   
    51    28    30 2   
    52    29    31 1   
    53    29   105 1   
    54    30    31 1   
    55    30   106 1   
    56    31   107 1   
    57    32    37 1   
    58    32   108 1   
    59    33    34 1   
    60    33    39 1   
    61    33    40 1   
    62    33   109 1   
    63    34    35 2   
    64    34    41 1   
    65    36    39 1   
    66    36   110 1   
    67    37    38 1   
    68    37    39 1   
    69    37   111 1   
    70    38   112 1   
    71    38   113 1   
    72    38   114 1   
    73    39   115 1   
    74    40   116 1   
    75    40   117 1   
    76    40   118 1   
    77    41    42 1   
    78    41   119 1   
    79    42    43 1   
    80    42    45 1   
    81    42   120 1   
    82    43    44 2   
    83    43    48 1   
    84    45    46 1   
    85    45    47 1   
    86    45   121 1   
    87    46   122 1   
    88    47   123 1   
    89    47   124 1   
    90    47   125 1   
    91    48    51 1   
    92    48   126 1   
    93    49   194 2   
    94    50    52 1   
    95    50    55 2   
    96    50   190 1   
    97    51   129 1   
    98    51   130 1   
    99    51   190 1   
   100    52    53 1   
   101    53    54 2   
   102    53   131 1   
   103    54    55 1   
   104    54    59 1   
   105    56    57 2   
   106    56    60 1   
   107    56   193 1   
   108    57    58 1   
   109    57   194 1   
   110    58    59 2   
   111    59    60 1   
   112    61   132 1   
   113    61   150 1   
   114    61   194 1   
   115    62    72 1   
   116    62   133 1   
   117    63    71 1   
   118    63   134 1   
   119    64    65 1   
   120    64    67 1   
   121    64   135 1   
   122    64   136 1   
   123    65   137 1   
   124    66    70 1   
   125    66    78 1   
   126    67    68 1   
   127    67    72 1   
   128    67   138 1   
   129    68    69 1   
   130    69    70 1   
   131    69   139 1   
   132    70    71 1   
   133    70   140 1   
   134    71    72 1   
   135    71   141 1   
   136    72   142 1   
   137    73    74 1   
   138    73    78 1   
   139    73    81 1   
   140    73   143 1   
   141    74    75 1   
   142    74    79 1   
   143    74   144 1   
   144    75    76 1   
   145    75    80 1   
   146    75   145 1   
   147    76    77 1   
   148    76   146 1   
   149    76   189 1   
   150    77    78 1   
   151    78   147 1   
   152    79    82 1   
   153    80   148 1   
   154    81   149 1   
   155    82    83 2   
   156    82   191 1   
   157    92   188 1   
   158    93   188 1   
   159    97   187 1   
   160    98   187 1   
   161   127   190 1   
   162   128   190 1   
   163   150   151 1   
   164   150   163 1   
   165   150   164 1   
   166   151   152 1   
   167   151   165 1   
   168   151   166 1   
   169   152   153 1   
   170   152   167 1   
   171   152   168 1   
   172   153   154 1   
   173   153   169 1   
   174   154   155 1   
   175   154   170 1   
   176   154   171 1   
   177   155   156 1   
   178   155   172 1   
   179   155   173 1   
   180   156   157 1   
   181   156   174 1   
   182   156   175 1   
   183   157   158 1   
   184   157   176 1   
   185   157   177 1   
   186   158   159 1   
   187   158   178 1   
   188   159   160 1   
   189   159   179 1   
   190   159   180 1   
   191   160   161 1   
   192   160   181 1   
   193   160   182 1   
   194   161   162 1   
   195   161   183 1   
   196   161   184 1   
   197   162   185 1   
   198   162   186 1   
   199   189   192 1   
   200   189   198 1   
   201   189   199 1   
   202   191   195 1   
   203   191   196 1   
   204   192   197 1   
@<TRIPOS>SUBSTRUCTURE
     1 BY6         1 TEMP              0 ****  ****    0 ROOT
