@<TRIPOS>MOLECULE
BY6
  199   204     1     0     0
SMALL
No Charge or Current Charge


@<TRIPOS>ATOM
      1 NA          11.3580    63.2280    18.6420 nt         1 BY6      -0.620000
      2 C2          13.2070    61.5870    18.3100 c3         1 BY6       0.153500
      3 C1          12.6240    62.8880    18.9900 c          1 BY6       0.587100
      4 O1          13.2250    63.5860    19.7940 o          1 BY6      -0.593100
      5 NC          15.4920    62.2320    17.5780 n7         1 BY6      -0.843400
      6 C3          14.7350    61.4130    18.5520 c3         1 BY6       0.166800
      7 NB          12.8780    61.3780    16.8430 n8         1 BY6      -1.140200
      8 C5          17.7810    61.6360    18.4100 c3         1 BY6      -0.150400
      9 C4          17.9500    62.9760    19.1220 c          1 BY6       0.631100
     10 O4          18.5240    63.9290    18.6200 o          1 BY6      -0.637100
     11 C8          17.3990    58.3690    15.7460 ca         1 BY6       0.344900
     12 C9          16.4740    58.3260    14.6730 ca         1 BY6      -0.176300
     13 C10         15.6480    59.4770    14.5040 ca         1 BY6       0.106500
     14 NG          15.8160    60.5480    15.3160 nb         1 BY6      -0.219000
     15 C7          16.7280    60.4830    16.3040 ca         1 BY6       0.145300
     16 NE          17.5280    59.4280    16.5550 nb         1 BY6      -0.258000
     17 C6          16.8410    61.7510    17.1800 c3         1 BY6       0.153200
     18 CA          16.3930    57.1150    13.7330 c3         1 BY6      -0.040800
     19 C12         14.5610    59.6310    13.4320 c          1 BY6       0.508600
     20 O12         14.1750    58.7340    12.6920 o          1 BY6      -0.622100
     21 NH          14.0210    60.8980    13.3390 ns         1 BY6      -0.484900
     22 C13         13.0540    61.3900    12.3250 c3         1 BY6       0.026700
     23 C30         13.7650    61.8970    11.0410 c          1 BY6       0.592100
     24 O30         13.1430    62.3520    10.0890 o          1 BY6      -0.617100
     25 C14         12.1820    62.5390    12.9190 c3         1 BY6       0.150000
     26 C27         13.0140    63.6230    13.5970 cc         1 BY6       0.189300
     27 OH1         11.2640    61.9850    13.8870 os         1 BY6      -0.475000
     28 NJ          13.6990    63.4080    14.7730 nc         1 BY6      -0.703000
     29 C28         13.2050    64.9020    13.1540 cd         1 BY6      -0.192000
     30 C29         14.3110    64.5480    15.0660 cd         1 BY6       0.417400
     31 NI          14.0360    65.4910    14.0960 na         1 BY6      -0.294500
     32 NK          15.1420    61.8240    11.0350 ns         1 BY6      -0.488900
     33 C34         17.2560    63.8790    11.6300 c3         1 BY6      -0.161700
     34 C36         18.6580    64.2310    12.1510 c          1 BY6       0.610100
     35 O36         19.5160    64.7230    11.4310 o          1 BY6      -0.603100
     36 OH2         18.1150    63.4170     9.3960 oh         1 BY6      -0.635000
     37 C31         16.0100    62.2880     9.9440 c3         1 BY6       0.072700
     38 CB          16.1780    61.1570     8.9040 c3         1 BY6      -0.110100
     39 C33         17.3720    62.8360    10.4770 c3         1 BY6       0.167300
     40 CC          16.4650    65.1610    11.2560 c3         1 BY6      -0.076100
     41 NL          18.9010    63.9270    13.4690 ns         1 BY6      -0.493900
     42 C37         20.2030    64.1400    14.1470 c3         1 BY6       0.031700
     43 C40         21.2580    63.1380    13.6010 c          1 BY6       0.594100
     44 O40         20.9810    61.9940    13.2590 o          1 BY6      -0.590100
     45 C38         20.0580    63.9970    15.6900 c3         1 BY6       0.169300
     46 OH3         18.9530    64.7840    16.1500 oh         1 BY6      -0.693000
     47 CD          21.3120    64.4260    16.4790 c3         1 BY6      -0.133100
     48 NM          22.5480    63.6260    13.5160 ns         1 BY6      -0.501900
     49 O49         33.2700    59.7140    11.6130 o          1 BY6      -0.603100
     50 C43         25.3930    61.0810    13.6950 cc         1 BY6       0.438700
     51 C41         23.7030    62.8480    13.0610 c3         1 BY6       0.106000
     52 S43         25.1620    59.4120    13.2320 ss         1 BY6       0.011600
     53 C44         26.8610    59.3460    12.8640 cc         1 BY6      -0.228000
     54 C45         27.4690    60.5610    13.1080 cd         1 BY6       0.231000
     55 NN          26.6240    61.5610    13.5860 nd         1 BY6      -0.646000
     56 C47         31.1850    61.4990    12.6070 cd         1 BY6      -0.223000
     57 C48         30.9750    60.1850    12.2520 cc         1 BY6       0.217500
     58 NO          29.6730    59.7350    12.3940 nc         1 BY6      -0.653000
     59 C46         28.8950    60.7160    12.8580 cd         1 BY6       0.394400
     60 S46         29.7010    62.2560    13.1550 ss         1 BY6       0.072600
     61 NP          31.7240    58.0440    11.4390 ns         1 BY6      -0.497900
     62 O59          6.7570    61.5440    14.6000 oh         1 BY6      -0.704000
     63 O58         10.0580    61.9650    16.2670 oh         1 BY6      -0.714000
     64 C61          7.6210    64.0610    13.1940 c3         1 BY6       0.171600
     65 O61          8.2060    64.5810    11.9880 oh         1 BY6      -0.726000
     66 O56         10.5220    59.4270    14.9860 os         1 BY6      -0.459000
     67 C60          8.5950    63.0750    13.9080 c6         1 BY6       0.133300
     68 O62          9.1430    62.1890    12.8880 os         1 BY6      -0.466000
     69 C63         10.1250    61.2480    13.3810 c6         1 BY6       0.371300
     70 C57          9.5190    60.3610    14.5070 c6         1 BY6       0.120300
     71 C58          8.9630    61.2580    15.6560 c6         1 BY6       0.130300
     72 C59          7.9200    62.2640    15.0680 c6         1 BY6       0.111300
     73 C69         11.1560    57.3040    16.0940 c6         1 BY6       0.132300
     74 C68         12.3720    57.1240    15.1200 c6         1 BY6       0.169300
     75 C67         11.9000    56.4810    13.7710 c6         1 BY6       0.161300
     76 C65         10.7020    57.2720    13.1700 c6         1 BY6       0.087300
     77 O64          9.6370    57.4340    14.1500 os         1 BY6      -0.472000
     78 C64         10.0390    58.1250    15.3570 c6         1 BY6       0.365300
     79 O68         13.4360    56.3200    15.6950 os         1 BY6      -0.434100
     80 O67         12.9750    56.3760    12.8090 oh         1 BY6      -0.712000
     81 O69         10.6760    56.0110    16.5620 oh         1 BY6      -0.699000
     82 C70         14.1470    56.7520    16.7700 c          1 BY6       0.635100
     83 O70         14.0130    57.8130    17.3480 o          1 BY6      -0.546000
     84 HNA         10.8540    62.6790    17.9550 hn         1 BY6       0.306000
     85 HNAA        10.9400    64.0530    19.0440 hn         1 BY6       0.306000
     86 H2          12.7240    60.7590    18.8480 h1         1 BY6       0.051700
     87 HNC         14.9130    62.1530    16.7290 hn         1 BY6       0.454000
     88 H3          14.9990    61.6630    19.5880 h1         1 BY6       0.041700
     89 H3A         14.9650    60.3490    18.4050 h1         1 BY6       0.041700
     90 HNB         11.8690    61.2050    16.7430 hn         1 BY6       0.463000
     91 HNBA        13.0210    62.2470    16.3010 hn         1 BY6       0.463000
     92 HND         17.0280    62.2630    20.8080 hn         1 BY6       0.311500
     93 HNDA        17.5980    63.9190    20.8960 hn         1 BY6       0.311500
     94 H5          18.7720    61.3320    18.0540 hc         1 BY6       0.066200
     95 H5A         17.4030    60.8760    19.1030 hc         1 BY6       0.066200
     96 H6          17.2900    62.5100    16.5220 h1         1 BY6       0.097700
     97 HNF         18.3770    56.5870    15.3890 hn         1 BY6       0.478500
     98 HNFA        18.9980    57.5130    16.7190 hn         1 BY6       0.478500
     99 HA          15.4780    56.5420    13.9080 hc         1 BY6       0.054700
    100 HAA         16.4040    57.4280    12.6830 hc         1 BY6       0.054700
    101 HAB         17.2310    56.4210    13.8490 hc         1 BY6       0.054700
    102 HNH         14.2670    61.5490    14.0850 hn         1 BY6       0.391500
    103 H13         12.4210    60.5540    12.0090 h1         1 BY6       0.089700
    104 H14         11.6150    63.0140    12.1070 h1         1 BY6       0.083700
    105 H28         12.8260    65.4120    12.2750 h4         1 BY6       0.175000
    106 H29         14.9430    64.7560    15.9240 h5         1 BY6       0.090100
    107 HNI         14.3820    66.4440    14.0980 hn         1 BY6       0.364000
    108 HNK         15.5670    61.4120    11.8550 hn         1 BY6       0.326500
    109 H34         16.7130    63.4110    12.4600 hc         1 BY6       0.066700
    110 HOH2        18.8120    63.9750     9.8170 ho         1 BY6       0.442000
    111 H31         15.5000    63.1210     9.4420 h1         1 BY6       0.084700
    112 HB          16.7570    61.5020     8.0400 hc         1 BY6       0.047700
    113 HBA         16.6950    60.2970     9.3450 hc         1 BY6       0.047700
    114 HBB         15.2010    60.8200     8.5390 hc         1 BY6       0.047700
    115 H33         17.9300    61.9760    10.8770 h1         1 BY6       0.065700
    116 HC          16.4280    65.8490    12.1090 hc         1 BY6       0.043700
    117 HCA         16.9320    65.6890    10.4160 hc         1 BY6       0.043700
    118 HCB         15.4310    64.9210    10.9790 hc         1 BY6       0.043700
    119 HNL         18.1280    63.5690    14.0150 hn         1 BY6       0.333500
    120 H37         20.5480    65.1560    13.9170 h1         1 BY6       0.061700
    121 H38         19.8650    62.9370    15.9140 h1         1 BY6       0.057700
    122 HOH3        18.8120    64.5390    17.1090 ho         1 BY6       0.497000
    123 HD          22.1640    63.7760    16.2480 hc         1 BY6       0.049367
    124 HDA         21.5900    65.4610    16.2410 hc         1 BY6       0.049367
    125 HDB         21.1330    64.3590    17.5580 hc         1 BY6       0.049367
    126 HNM         22.6950    64.5890    13.7950 hn         1 BY6       0.317500
    127 H42         23.4290    61.2570    14.5080 hc         1 BY6       0.064700
    128 H42A        24.5430    62.5140    15.0280 hc         1 BY6       0.064700
    129 H41         23.4140    62.2560    12.1810 h1         1 BY6       0.071200
    130 H41A        24.4970    63.5420    12.7510 h1         1 BY6       0.071200
    131 H44         27.2990    58.4280    12.4940 h4         1 BY6       0.176000
    132 HNP         30.7400    57.8400    11.5800 hn         1 BY6       0.336500
    133 HO59         6.1850    61.3630    15.3830 ho         1 BY6       0.507000
    134 HO58        10.6630    62.1510    15.4960 ho         1 BY6       0.521000
    135 H61          7.3660    64.8730    13.8880 h1         1 BY6       0.060700
    136 H61A         6.6900    63.5280    12.9560 h1         1 BY6       0.060700
    137 HO61         8.7280    63.8230    11.6300 ho         1 BY6       0.514000
    138 H60          9.4130    63.6810    14.3240 h1         1 BY6       0.059700
    139 H63         10.4350    60.5860    12.5600 h2         1 BY6       0.081700
    140 H57          8.6880    59.7990    14.0580 h1         1 BY6       0.081700
    141 H58          8.4640    60.6220    16.4010 h1         1 BY6       0.071700
    142 H59          7.6280    62.9710    15.8600 h1         1 BY6       0.055700
    143 H69         11.4870    57.9110    16.9490 h1         1 BY6       0.077700
    144 H68         12.7760    58.1230    14.9040 h1         1 BY6       0.091700
    145 H67         11.5310    55.4720    14.0110 h1         1 BY6       0.086700
    146 H65         11.0470    58.2660    12.8490 h1         1 BY6       0.054700
    147 H64          9.1730    58.2320    16.0280 h2         1 BY6       0.077700
    148 HO67        13.4230    57.2720    12.7630 ho         1 BY6       0.524000
    149 HO69        10.0420    56.1750    17.2980 ho         1 BY6       0.511000
    150 C50         32.6130    56.9800    10.9640 c3         1 BY6       0.114000
    151 C52         33.5080    56.3950    12.0780 c3         1 BY6      -0.103400
    152 C53         32.7130    55.7560    13.2340 c3         1 BY6       0.161800
    153 N18         33.6380    55.1820    14.2260 n7         1 BY6      -0.860400
    154 C54         32.9930    54.5600    15.3960 c3         1 BY6       0.161800
    155 C55         34.0620    54.0190    16.3670 c3         1 BY6      -0.079400
    156 C56         33.4540    53.3580    17.6250 c3         1 BY6      -0.078400
    157 C571        34.5240    52.8210    18.5970 c3         1 BY6       0.159800
    158 N19         33.8830    52.2000    19.7700 n7         1 BY6      -0.861400
    159 C581        34.8140    51.6420    20.7670 c3         1 BY6       0.159800
    160 C591        34.0320    51.0090    21.9350 c3         1 BY6      -0.083400
    161 C601        34.9630    50.4020    23.0030 c3         1 BY6       0.150800
    162 N20         34.2010    49.8070    24.1170 n8         1 BY6      -0.996200
    163 H50         31.9980    56.1790    10.5330 h1         1 BY6       0.048700
    164 H50A        33.2470    57.3820    10.1620 h1         1 BY6       0.048700
    165 H75         34.1640    55.6390    11.6310 hc         1 BY6       0.060200
    166 H76         34.1570    57.1840    12.4750 hc         1 BY6       0.060200
    167 H77         32.0800    56.5210    13.7050 h1         1 BY6       0.028200
    168 H78         32.0540    54.9760    12.8300 h1         1 BY6       0.028200
    169 H79         34.2050    54.4660    13.7580 hn         1 BY6       0.403000
    170 H80         32.3700    55.2960    15.9240 h1         1 BY6       0.027700
    171 H81         32.3430    53.7330    15.0800 h1         1 BY6       0.027700
    172 H82         34.6890    53.2860    15.8440 hc         1 BY6       0.045700
    173 H83         34.7180    54.8430    16.6760 hc         1 BY6       0.045700
    174 H84         32.8250    54.0900    18.1470 hc         1 BY6       0.044700
    175 H85         32.8000    52.5320    17.3160 hc         1 BY6       0.044700
    176 H86         35.1490    52.0860    18.0710 h1         1 BY6       0.028200
    177 H87         35.1730    53.6500    18.9100 h1         1 BY6       0.028200
    178 H88         33.3090    52.9150    20.2340 hn         1 BY6       0.405000
    179 H89         35.4510    50.8750    20.3060 h1         1 BY6       0.026700
    180 H90         35.4700    52.4310    21.1610 h1         1 BY6       0.026700
    181 H91         33.3970    51.7720    22.4020 hc         1 BY6       0.053200
    182 H92         33.3700    50.2270    21.5430 hc         1 BY6       0.053200
    183 H93         35.5890    49.6210    22.5480 h1         1 BY6       0.025200
    184 H94         35.6220    51.1840    23.4070 h1         1 BY6       0.025200
    185 H95         33.6490    49.0180    23.7590 hn         1 BY6       0.392500
    186 H96         34.8570    49.3630    24.7720 hn         1 BY6       0.392500
    187 NF          18.2510    57.3490    16.0480 nv         1 BY6      -1.056900
    188 ND          17.4940    63.0530    20.3890 nt         1 BY6      -0.605000
    189 C66         10.0790    56.5630    11.9330 c3         1 BY6       0.168600
    190 C42         24.2360    61.9140    14.1630 c3         1 BY6      -0.137700
    191 NQ          15.0600    55.8330    17.1110 nt         1 BY6      -0.592000
    192 O66          8.7810    57.1020    11.6450 oh         1 BY6      -0.715000
    193 H47         32.1130    62.0560    12.5770 h4         1 BY6       0.179000
    194 C49         32.1120    59.3330    11.7490 c          1 BY6       0.535600
    195 HNQ         15.6960    56.0230    17.8690 hn         1 BY6       0.328000
    196 HNQA        15.1220    54.9800    16.5800 hn         1 BY6       0.328000
    197 HO66         8.4290    57.3450    12.5350 ho         1 BY6       0.509000
    198 H66         10.7520    56.6800    11.0730 h1         1 BY6       0.054200
    199 H66A        10.0010    55.4890    12.1500 h1         1 BY6       0.054200
@<TRIPOS>BOND
     1     1     3 1   
     2     1    84 1   
     3     1    85 1   
     4     2     3 1   
     5     2     6 1   
     6     2     7 1   
     7     2    86 1   
     8     3     4 2   
     9     5     6 1   
    10     5    17 1   
    11     5    87 1   
    12     6    88 1   
    13     6    89 1   
    14     7    90 1   
    15     7    91 1   
    16     8     9 1   
    17     8    17 1   
    18     8    94 1   
    19     8    95 1   
    20     9    10 2   
    21     9   188 1   
    22    11    12 ar  
    23    11    16 ar  
    24    11   187 1   
    25    12    13 ar  
    26    12    18 1   
    27    13    14 ar  
    28    13    19 1   
    29    14    15 ar  
    30    15    16 ar  
    31    15    17 1   
    32    17    96 1   
    33    18    99 1   
    34    18   100 1   
    35    18   101 1   
    36    19    20 2   
    37    19    21 1   
    38    21    22 1   
    39    21   102 1   
    40    22    23 1   
    41    22    25 1   
    42    22   103 1   
    43    23    24 2   
    44    23    32 1   
    45    25    26 1   
    46    25    27 1   
    47    25   104 1   
    48    26    28 1   
    49    26    29 2   
    50    27    69 1   
    51    28    30 2   
    52    29    31 1   
    53    29   105 1   
    54    30    31 1   
    55    30   106 1   
    56    31   107 1   
    57    32    37 1   
    58    32   108 1   
    59    33    34 1   
    60    33    39 1   
    61    33    40 1   
    62    33   109 1   
    63    34    35 2   
    64    34    41 1   
    65    36    39 1   
    66    36   110 1   
    67    37    38 1   
    68    37    39 1   
    69    37   111 1   
    70    38   112 1   
    71    38   113 1   
    72    38   114 1   
    73    39   115 1   
    74    40   116 1   
    75    40   117 1   
    76    40   118 1   
    77    41    42 1   
    78    41   119 1   
    79    42    43 1   
    80    42    45 1   
    81    42   120 1   
    82    43    44 2   
    83    43    48 1   
    84    45    46 1   
    85    45    47 1   
    86    45   121 1   
    87    46   122 1   
    88    47   123 1   
    89    47   124 1   
    90    47   125 1   
    91    48    51 1   
    92    48   126 1   
    93    49   194 2   
    94    50    52 1   
    95    50    55 2   
    96    50   190 1   
    97    51   129 1   
    98    51   130 1   
    99    51   190 1   
   100    52    53 1   
   101    53    54 2   
   102    53   131 1   
   103    54    55 1   
   104    54    59 1   
   105    56    57 2   
   106    56    60 1   
   107    56   193 1   
   108    57    58 1   
   109    57   194 1   
   110    58    59 2   
   111    59    60 1   
   112    61   132 1   
   113    61   150 1   
   114    61   194 1   
   115    62    72 1   
   116    62   133 1   
   117    63    71 1   
   118    63   134 1   
   119    64    65 1   
   120    64    67 1   
   121    64   135 1   
   122    64   136 1   
   123    65   137 1   
   124    66    70 1   
   125    66    78 1   
   126    67    68 1   
   127    67    72 1   
   128    67   138 1   
   129    68    69 1   
   130    69    70 1   
   131    69   139 1   
   132    70    71 1   
   133    70   140 1   
   134    71    72 1   
   135    71   141 1   
   136    72   142 1   
   137    73    74 1   
   138    73    78 1   
   139    73    81 1   
   140    73   143 1   
   141    74    75 1   
   142    74    79 1   
   143    74   144 1   
   144    75    76 1   
   145    75    80 1   
   146    75   145 1   
   147    76    77 1   
   148    76   146 1   
   149    76   189 1   
   150    77    78 1   
   151    78   147 1   
   152    79    82 1   
   153    80   148 1   
   154    81   149 1   
   155    82    83 2   
   156    82   191 1   
   157    92   188 1   
   158    93   188 1   
   159    97   187 1   
   160    98   187 1   
   161   127   190 1   
   162   128   190 1   
   163   150   151 1   
   164   150   163 1   
   165   150   164 1   
   166   151   152 1   
   167   151   165 1   
   168   151   166 1   
   169   152   153 1   
   170   152   167 1   
   171   152   168 1   
   172   153   154 1   
   173   153   169 1   
   174   154   155 1   
   175   154   170 1   
   176   154   171 1   
   177   155   156 1   
   178   155   172 1   
   179   155   173 1   
   180   156   157 1   
   181   156   174 1   
   182   156   175 1   
   183   157   158 1   
   184   157   176 1   
   185   157   177 1   
   186   158   159 1   
   187   158   178 1   
   188   159   160 1   
   189   159   179 1   
   190   159   180 1   
   191   160   161 1   
   192   160   181 1   
   193   160   182 1   
   194   161   162 1   
   195   161   183 1   
   196   161   184 1   
   197   162   185 1   
   198   162   186 1   
   199   189   192 1   
   200   189   198 1   
   201   189   199 1   
   202   191   195 1   
   203   191   196 1   
   204   192   197 1   
@<TRIPOS>SUBSTRUCTURE
     1 BY6         1 TEMP              0 ****  ****    0 ROOT
