@<TRIPOS>MOLECULE
BY7
   52    53     1     0     0
SMALL
No Charge or Current Charge


@<TRIPOS>ATOM
      1 F20          1.3860    -4.3680     1.4090 f          1 BY7      -0.115000
      2 C17          1.6540    -3.7610     0.2320 c3         1 BY7       0.355300
      3 F18          2.9540    -4.0060    -0.0530 f          1 BY7      -0.115000
      4 F19          0.9260    -4.3970    -0.7150 f          1 BY7      -0.115000
      5 C13          1.3440    -2.2610     0.2960 ca         1 BY7      -0.193300
      6 C14          2.3310    -1.3420     0.7130 ca         1 BY7      -0.062000
      7 C15          2.0480     0.0350     0.7850 ca         1 BY7      -0.079300
      8 C21          3.1240     1.0160     1.2300 c3         1 BY7      -0.033100
      9 C22          3.9870     1.5030     0.0470 c3         1 BY7      -0.076400
     10 C23          5.0820     2.5080     0.4750 c3         1 BY7       0.166800
     11 N24          6.0330     2.8940    -0.5990 n3         1 BY7      -0.713600
     12 C26          5.3940     3.5800    -1.7490 c3         1 BY7       0.150600
     13 C25          7.1830     3.6610    -0.0720 c3         1 BY7       0.150600
     14 C12          0.0590    -1.7790    -0.0360 ca         1 BY7      -0.063000
     15 C11         -0.2320    -0.4030     0.0290 ca         1 BY7      -0.082300
     16 C16          0.7660     0.4990     0.4390 ca         1 BY7      -0.077000
     17 C09         -1.6220     0.1040    -0.3320 c3         1 BY7      -0.029100
     18 C08         -2.5630     0.1350     0.8910 c3         1 BY7      -0.124700
     19 C06         -3.9620     0.6160     0.5370 ca         1 BY7       0.395300
     20 N01         -4.2430     1.9120     0.8010 nb         1 BY7      -0.755000
     21 C02         -5.4560     2.3370     0.4840 ca         1 BY7       0.599900
     22 N02         -5.6120     3.6250     0.7970 nv         1 BY7      -1.054900
     23 C03         -6.4600     1.5540    -0.0900 ca         1 BY7      -0.231000
     24 C04         -6.1800     0.2080    -0.3660 ca         1 BY7       0.002700
     25 C05         -4.8970    -0.2620    -0.0430 ca         1 BY7      -0.214000
     26 C07         -7.2200    -0.7030    -0.9960 c3         1 BY7      -0.053800
     27 H1           3.3240    -1.6950     0.9850 ha         1 BY7       0.127000
     28 H2           2.6650     1.8830     1.7210 hc         1 BY7       0.048200
     29 H3           3.7730     0.5480     1.9810 hc         1 BY7       0.048200
     30 H4           4.4620     0.6380    -0.4320 hc         1 BY7       0.052200
     31 H5           3.3290     1.9660    -0.6980 hc         1 BY7       0.052200
     32 H6           4.5950     3.4050     0.8830 h1         1 BY7       0.028200
     33 H7           5.6450     2.0480     1.2990 h1         1 BY7       0.028200
     34 H9           4.8920     4.5020    -1.4250 h1         1 BY7       0.030367
     35 H10          6.1450     3.8480    -2.5050 h1         1 BY7       0.030367
     36 H11          4.6540     2.9340    -2.2380 h1         1 BY7       0.030367
     37 H12          7.6960     3.0980     0.7200 h1         1 BY7       0.030367
     38 H13          7.9140     3.8630    -0.8670 h1         1 BY7       0.030367
     39 H14          6.8550     4.6220     0.3470 h1         1 BY7       0.030367
     40 H15         -0.7210    -2.4730    -0.3430 ha         1 BY7       0.129000
     41 H16          0.5440     1.5620     0.4930 ha         1 BY7       0.120000
     42 H17         -1.5570     1.1120    -0.7610 hc         1 BY7       0.060200
     43 H18         -2.0630    -0.5290    -1.1120 hc         1 BY7       0.060200
     44 H19         -2.6200    -0.8710     1.3230 hc         1 BY7       0.056200
     45 H20         -2.1220     0.7740     1.6660 hc         1 BY7       0.056200
     46 H21         -4.9000     3.9970     1.4130 hn         1 BY7       0.468000
     47 H22         -6.5570     3.9640     0.9360 hn         1 BY7       0.468000
     48 H23         -7.4310     1.9830    -0.3180 ha         1 BY7       0.119000
     49 H24         -4.6220    -1.2950    -0.2400 ha         1 BY7       0.122000
     50 H25         -7.1300    -0.7000    -2.0890 hc         1 BY7       0.047367
     51 H26         -7.1020    -1.7380    -0.6530 hc         1 BY7       0.047367
     52 H27         -8.2370    -0.3850    -0.7420 hc         1 BY7       0.047367
@<TRIPOS>BOND
     1     1     2 1   
     2     2     3 1   
     3     2     4 1   
     4     2     5 1   
     5     5     6 ar  
     6     5    14 ar  
     7     6     7 ar  
     8     6    27 1   
     9     7     8 1   
    10     7    16 ar  
    11     8     9 1   
    12     8    28 1   
    13     8    29 1   
    14     9    10 1   
    15     9    30 1   
    16     9    31 1   
    17    10    11 1   
    18    10    32 1   
    19    10    33 1   
    20    11    12 1   
    21    11    13 1   
    22    12    34 1   
    23    12    35 1   
    24    12    36 1   
    25    13    37 1   
    26    13    38 1   
    27    13    39 1   
    28    14    15 ar  
    29    14    40 1   
    30    15    16 ar  
    31    15    17 1   
    32    16    41 1   
    33    17    18 1   
    34    17    42 1   
    35    17    43 1   
    36    18    19 1   
    37    18    44 1   
    38    18    45 1   
    39    19    20 ar  
    40    19    25 ar  
    41    20    21 ar  
    42    21    22 1   
    43    21    23 ar  
    44    22    46 1   
    45    22    47 1   
    46    23    24 ar  
    47    23    48 1   
    48    24    25 ar  
    49    24    26 1   
    50    25    49 1   
    51    26    50 1   
    52    26    51 1   
    53    26    52 1   
@<TRIPOS>SUBSTRUCTURE
     1 BY7         1 TEMP              0 ****  ****    0 ROOT
