@<TRIPOS>MOLECULE
BY7
   52    53     1     0     0
SMALL
abcg2


@<TRIPOS>ATOM
      1 F20          1.6830    -4.4180     1.2580 f          1 BY7      -0.115000
      2 C17          1.6820    -3.8480     0.0420 c3         1 BY7       0.355300
      3 F18          2.8910    -4.0840    -0.4860 f          1 BY7      -0.115000
      4 F19          0.7960    -4.5230    -0.6990 f          1 BY7      -0.115000
      5 C13          1.3790    -2.3850     0.1220 ca         1 BY7      -0.193300
      6 C14          2.3610    -1.5260     0.6030 ca         1 BY7      -0.062000
      7 C15          2.1010    -0.1680     0.7310 ca         1 BY7      -0.079300
      8 C21          3.1640     0.7810     1.2050 c3         1 BY7      -0.033100
      9 C22          3.8840     1.4690     0.0440 c3         1 BY7      -0.076400
     10 C23          4.9440     2.4380     0.5520 c3         1 BY7       0.166800
     11 N24          5.6950     3.0880    -0.5060 n3         1 BY7      -0.713600
     12 C26          4.9020     4.0490    -1.2400 c3         1 BY7       0.150600
     13 C25          6.8940     3.7080     0.0140 c3         1 BY7       0.150600
     14 C12          0.1300    -1.8990    -0.2340 ca         1 BY7      -0.063000
     15 C11         -0.1480    -0.5390    -0.1170 ca         1 BY7      -0.082300
     16 C16          0.8430     0.3060     0.3670 ca         1 BY7      -0.077000
     17 C09         -1.5100    -0.0090    -0.4620 c3         1 BY7      -0.029100
     18 C08         -2.4450    -0.0190     0.7560 c3         1 BY7      -0.124700
     19 C06         -3.7970     0.5450     0.4230 ca         1 BY7       0.395300
     20 N01         -3.8470     1.8630     0.2140 nb         1 BY7      -0.755000
     21 C02         -5.0120     2.4120    -0.1100 ca         1 BY7       0.599900
     22 N02         -5.0180     3.7530    -0.3660 nv         1 BY7      -1.054900
     23 C03         -6.1910     1.6560    -0.2330 ca         1 BY7      -0.231000
     24 C04         -6.1410     0.2940    -0.0180 ca         1 BY7       0.002700
     25 C05         -4.9060    -0.2740     0.3180 ca         1 BY7      -0.214000
     26 C07         -7.3620    -0.5620    -0.1510 c3         1 BY7      -0.053800
     27 H1           3.3380    -1.9040     0.8840 ha         1 BY7       0.127000
     28 H2           2.7130     1.5420     1.8480 hc         1 BY7       0.048200
     29 H3           3.8920     0.2450     1.8190 hc         1 BY7       0.048200
     30 H4           4.3580     0.7200    -0.5960 hc         1 BY7       0.052200
     31 H5           3.1460     1.9880    -0.5730 hc         1 BY7       0.052200
     32 H6           4.4680     3.1740     1.2260 h1         1 BY7       0.028200
     33 H7           5.6530     1.8770     1.1690 h1         1 BY7       0.028200
     34 H9           4.5350     4.8780    -0.6130 h1         1 BY7       0.030367
     35 H10          5.4980     4.4820    -2.0440 h1         1 BY7       0.030367
     36 H11          4.0360     3.5730    -1.7010 h1         1 BY7       0.030367
     37 H12          7.5250     2.9620     0.4990 h1         1 BY7       0.030367
     38 H13          7.4700     4.1510    -0.8010 h1         1 BY7       0.030367
     39 H14          6.6920     4.5040     0.7490 h1         1 BY7       0.030367
     40 H15         -0.6410    -2.5610    -0.6080 ha         1 BY7       0.129000
     41 H16          0.6310     1.3670     0.4620 ha         1 BY7       0.120000
     42 H17         -1.4290     1.0120    -0.8390 hc         1 BY7       0.060200
     43 H18         -1.9510    -0.6120    -1.2590 hc         1 BY7       0.060200
     44 H19         -2.5480    -1.0410     1.1290 hc         1 BY7       0.056200
     45 H20         -1.9930     0.5730     1.5570 hc         1 BY7       0.056200
     46 H21         -4.2410     4.2790    -0.0010 hn         1 BY7       0.468000
     47 H22         -5.9010     4.2320    -0.3050 hn         1 BY7       0.468000
     48 H23         -7.1230     2.1430    -0.4960 ha         1 BY7       0.119000
     49 H24         -4.8170    -1.3380     0.4980 ha         1 BY7       0.122000
     50 H25         -7.2860    -1.2020    -1.0320 hc         1 BY7       0.047367
     51 H26         -7.4750    -1.2200     0.7110 hc         1 BY7       0.047367
     52 H27         -8.2680     0.0340    -0.2470 hc         1 BY7       0.047367
@<TRIPOS>BOND
     1     1     2 1   
     2     2     3 1   
     3     2     4 1   
     4     2     5 1   
     5     5     6 ar  
     6     5    14 ar  
     7     6     7 ar  
     8     6    27 1   
     9     7     8 1   
    10     7    16 ar  
    11     8     9 1   
    12     8    28 1   
    13     8    29 1   
    14     9    10 1   
    15     9    30 1   
    16     9    31 1   
    17    10    11 1   
    18    10    32 1   
    19    10    33 1   
    20    11    12 1   
    21    11    13 1   
    22    12    34 1   
    23    12    35 1   
    24    12    36 1   
    25    13    37 1   
    26    13    38 1   
    27    13    39 1   
    28    14    15 ar  
    29    14    40 1   
    30    15    16 ar  
    31    15    17 1   
    32    16    41 1   
    33    17    18 1   
    34    17    42 1   
    35    17    43 1   
    36    18    19 1   
    37    18    44 1   
    38    18    45 1   
    39    19    20 ar  
    40    19    25 ar  
    41    20    21 ar  
    42    21    22 1   
    43    21    23 ar  
    44    22    46 1   
    45    22    47 1   
    46    23    24 ar  
    47    23    48 1   
    48    24    25 ar  
    49    24    26 1   
    50    25    49 1   
    51    26    50 1   
    52    26    51 1   
    53    26    52 1   
@<TRIPOS>SUBSTRUCTURE
     1 BY7         1 TEMP              0 ****  ****    0 ROOT
