@<TRIPOS>MOLECULE
BY8
   48    52     1     0     0
SMALL
No Charge or Current Charge


@<TRIPOS>ATOM
      1 C10        -16.8770    17.5680   -15.5240 cx         1 BY8      -0.134400
      2 C11        -17.9070    16.5580   -15.9460 cx         1 BY8      -0.134400
      3 C12        -17.0580    14.0820   -14.0390 cc         1 BY8       0.025800
      4 C23        -20.2040    12.5080   -13.7080 ca         1 BY8      -0.079000
      5 C24        -19.3510    11.5660   -14.3350 ca         1 BY8      -0.025000
      6 C13        -17.8010    13.4570   -15.2150 c3         1 BY8       0.000100
      7 C14        -18.1900    11.9830   -15.0440 ca         1 BY8      -0.050300
      8 C16        -17.6610     9.6490   -15.5260 ca         1 BY8      -0.109000
      9 C17        -18.8090     9.2190   -14.8390 ca         1 BY8      -0.075300
     10 C18        -19.0910     7.7190   -14.7630 c3         1 BY8      -0.041800
     11 C19        -19.6600    10.1810   -14.2360 ca         1 BY8      -0.029000
     12 C20        -20.8190     9.7790   -13.5290 ca         1 BY8      -0.114000
     13 C21        -21.6560    10.7280   -12.9230 ca         1 BY8      -0.105000
     14 C22        -21.3470    12.0900   -13.0100 ca         1 BY8      -0.109000
     15 C25        -16.9540    13.4440   -12.8090 cd         1 BY8      -0.334200
     16 C26        -16.1990    13.9490   -11.6500 c          1 BY8       0.573200
     17 C04        -14.6860    15.7820   -10.8290 c5         1 BY8      -0.066300
     18 C05        -13.7310    16.6860   -11.6640 c5         1 BY8       0.069600
     19 S06        -14.7380    17.3040   -13.0950 ss         1 BY8      -0.335600
     20 C07        -15.6940    15.8230   -13.0660 cd         1 BY8       0.244200
     21 C08        -16.4020    15.3820   -14.1710 cc         1 BY8      -0.200200
     22 C09        -16.5440    16.0890   -15.4750 cx         1 BY8      -0.049500
     23 C15        -17.3560    11.0120   -15.6270 ca         1 BY8      -0.114000
     24 N28        -15.5290    15.1510   -11.8830 n          1 BY8      -0.228000
     25 H101       -16.4040    18.1660   -16.2980 hc         1 BY8       0.070450
     26 H102       -17.0660    18.0960   -14.5930 hc         1 BY8       0.070450
     27 H112       -18.7600    16.4180   -15.2870 hc         1 BY8       0.070450
     28 H111       -18.1320    16.4740   -17.0060 hc         1 BY8       0.070450
     29 H231       -19.9930    13.5720   -13.7400 ha         1 BY8       0.131000
     30 H131       -17.1770    13.5450   -16.1120 hc         1 BY8       0.055700
     31 H132       -18.6980    14.0390   -15.4490 hc         1 BY8       0.055700
     32 H161       -16.9960     8.9230   -15.9890 ha         1 BY8       0.102000
     33 H182       -19.1100     7.3730   -13.7230 hc         1 BY8       0.037033
     34 H181       -20.0570     7.4760   -15.2210 hc         1 BY8       0.037033
     35 H183       -18.3280     7.1320   -15.2860 hc         1 BY8       0.037033
     36 H201       -21.0870     8.7310   -13.4360 ha         1 BY8       0.102000
     37 H211       -22.5420    10.4040   -12.3820 ha         1 BY8       0.105000
     38 H221       -21.9920    12.8250   -12.5330 ha         1 BY8       0.117000
     39 H251       -17.4210    12.4880   -12.6170 ha         1 BY8       0.200000
     40 H041       -14.1220    15.0370   -10.2550 h1         1 BY8       0.094700
     41 H051       -12.8970    16.0920   -12.0620 h1         1 BY8       0.074200
     42 H052       -13.3070    17.5190   -11.0880 h1         1 BY8       0.074200
     43 H091       -15.8560    15.7220   -16.2340 hc         1 BY8       0.063700
     44 H151       -16.4620    11.3140   -16.1660 ha         1 BY8       0.108000
     45 C02        -15.4600    16.6670    -9.8100 c          1 BY8       0.724000
     46 O27        -16.1400    13.3430   -10.5880 o          1 BY8      -0.576000
     47 O01        -16.6550    16.8770    -9.9640 o          1 BY8      -0.700000
     48 O03        -14.8560    17.0750    -8.8280 o          1 BY8      -0.700000
@<TRIPOS>BOND
     1     1     2 1   
     2     1    22 1   
     3     1    25 1   
     4     1    26 1   
     5     2    22 1   
     6     2    27 1   
     7     2    28 1   
     8     3     6 1   
     9     3    15 2   
    10     3    21 1   
    11     4     5 ar  
    12     4    14 ar  
    13     4    29 1   
    14     5     7 ar  
    15     5    11 ar  
    16     6     7 1   
    17     6    30 1   
    18     6    31 1   
    19     7    23 ar  
    20     8     9 ar  
    21     8    23 ar  
    22     8    32 1   
    23     9    10 1   
    24     9    11 ar  
    25    10    33 1   
    26    10    34 1   
    27    10    35 1   
    28    11    12 ar  
    29    12    13 ar  
    30    12    36 1   
    31    13    14 ar  
    32    13    37 1   
    33    14    38 1   
    34    15    16 1   
    35    15    39 1   
    36    16    24 1   
    37    16    46 2   
    38    17    18 1   
    39    17    24 1   
    40    17    40 1   
    41    17    45 1   
    42    18    19 1   
    43    18    41 1   
    44    18    42 1   
    45    19    20 1   
    46    20    21 2   
    47    20    24 1   
    48    21    22 1   
    49    22    43 1   
    50    23    44 1   
    51    45    47 1   
    52    45    48 1   
@<TRIPOS>SUBSTRUCTURE
     1 BY8         1 TEMP              0 ****  ****    0 ROOT
