@<TRIPOS>MOLECULE
BY8
   48    52     1     0     0
SMALL
abcg2


@<TRIPOS>ATOM
      1 C10        -17.2760    17.5220   -15.2550 cx         1 BY8      -0.134400
      2 C11        -18.1410    16.4170   -15.7830 cx         1 BY8      -0.134400
      3 C12        -16.7170    13.8980   -14.1600 cc         1 BY8       0.025800
      4 C23        -19.8360    12.7410   -13.8110 ca         1 BY8      -0.079000
      5 C24        -19.1200    11.6630   -14.3910 ca         1 BY8      -0.025000
      6 C13        -17.3820    13.2580   -15.3630 c3         1 BY8       0.000100
      7 C14        -17.9290    11.8730   -15.1500 ca         1 BY8      -0.050300
      8 C16        -17.7740     9.4730   -15.4920 ca         1 BY8      -0.109000
      9 C17        -18.9120     9.2250   -14.7660 ca         1 BY8      -0.075300
     10 C18        -19.4060     7.8170   -14.5760 c3         1 BY8      -0.041800
     11 C19        -19.6120    10.3330   -14.1970 ca         1 BY8      -0.029000
     12 C20        -20.7930    10.1520   -13.4330 ca         1 BY8      -0.114000
     13 C21        -21.4590    11.2190   -12.8830 ca         1 BY8      -0.105000
     14 C22        -20.9750    12.5280   -13.0760 ca         1 BY8      -0.109000
     15 C25        -16.3860    13.1500   -13.0620 cd         1 BY8      -0.334200
     16 C26        -15.7220    13.6980   -11.9230 c          1 BY8       0.573200
     17 C04        -14.8080    15.7780   -10.9250 c5         1 BY8      -0.066300
     18 C05        -14.0520    16.9430   -11.5500 c5         1 BY8       0.069600
     19 S06        -15.0530    17.4280   -13.0040 ss         1 BY8      -0.335600
     20 C07        -15.6890    15.7930   -13.1480 cd         1 BY8       0.244200
     21 C08        -16.3870    15.2880   -14.2160 cc         1 BY8      -0.200200
     22 C09        -16.7090    16.1310   -15.4020 cx         1 BY8      -0.049500
     23 C15        -17.2870    10.7830   -15.6810 ca         1 BY8      -0.114000
     24 N28        -15.3780    15.0410   -12.0520 n          1 BY8      -0.228000
     25 H101       -16.9240    18.2820   -15.9390 hc         1 BY8       0.070450
     26 H102       -17.4930    17.8790   -14.2580 hc         1 BY8       0.070450
     27 H112       -18.9140    16.0410   -15.1250 hc         1 BY8       0.070450
     28 H111       -18.3950    16.4080   -16.8350 hc         1 BY8       0.070450
     29 H231       -19.4750    13.7510   -13.9450 ha         1 BY8       0.131000
     30 H131       -16.6420    13.2280   -16.1680 hc         1 BY8       0.055700
     31 H132       -18.1690    13.9210   -15.7210 hc         1 BY8       0.055700
     32 H161       -17.2310     8.6440   -15.9310 ha         1 BY8       0.102000
     33 H182       -19.4430     7.5440   -13.5190 hc         1 BY8       0.037033
     34 H181       -20.4160     7.6880   -14.9740 hc         1 BY8       0.037033
     35 H183       -18.7490     7.1130   -15.0860 hc         1 BY8       0.037033
     36 H201       -21.1740     9.1520   -13.2800 ha         1 BY8       0.102000
     37 H211       -22.3570    11.0560   -12.3020 ha         1 BY8       0.105000
     38 H221       -21.5040    13.3670   -12.6410 ha         1 BY8       0.117000
     39 H251       -16.6350    12.1000   -13.0110 ha         1 BY8       0.200000
     40 H041       -14.1280    15.1200   -10.3890 h1         1 BY8       0.094700
     41 H051       -13.0590    16.6510   -11.8900 h1         1 BY8       0.074200
     42 H052       -13.9770    17.7840   -10.8670 h1         1 BY8       0.074200
     43 H091       -16.0400    15.9980   -16.2470 hc         1 BY8       0.063700
     44 H151       -16.3830    10.9300   -16.2590 ha         1 BY8       0.108000
     45 C02        -15.9000    16.2580    -9.9130 c          1 BY8       0.724000
     46 O27        -15.4370    13.0790   -10.8830 o          1 BY8      -0.576000
     47 O01        -17.0960    16.0150   -10.1760 o          1 BY8      -0.700000
     48 O03        -15.4360    16.8570    -8.9150 o          1 BY8      -0.700000
@<TRIPOS>BOND
     1     1     2 1   
     2     1    22 1   
     3     1    25 1   
     4     1    26 1   
     5     2    22 1   
     6     2    27 1   
     7     2    28 1   
     8     3     6 1   
     9     3    15 2   
    10     3    21 1   
    11     4     5 ar  
    12     4    14 ar  
    13     4    29 1   
    14     5     7 ar  
    15     5    11 ar  
    16     6     7 1   
    17     6    30 1   
    18     6    31 1   
    19     7    23 ar  
    20     8     9 ar  
    21     8    23 ar  
    22     8    32 1   
    23     9    10 1   
    24     9    11 ar  
    25    10    33 1   
    26    10    34 1   
    27    10    35 1   
    28    11    12 ar  
    29    12    13 ar  
    30    12    36 1   
    31    13    14 ar  
    32    13    37 1   
    33    14    38 1   
    34    15    16 1   
    35    15    39 1   
    36    16    24 1   
    37    16    46 2   
    38    17    18 1   
    39    17    24 1   
    40    17    40 1   
    41    17    45 1   
    42    18    19 1   
    43    18    41 1   
    44    18    42 1   
    45    19    20 1   
    46    20    21 2   
    47    20    24 1   
    48    21    22 1   
    49    22    43 1   
    50    23    44 1   
    51    45    47 1   
    52    45    48 1   
@<TRIPOS>SUBSTRUCTURE
     1 BY8         1 TEMP              0 ****  ****    0 ROOT
