@<TRIPOS>MOLECULE
BY9
   57    63     1     0     0
SMALL
No Charge or Current Charge


@<TRIPOS>ATOM
      1 C1          20.5070     8.6070   -15.8300 ca         1 BY9      -0.145000
      2 C10         15.1270     9.9050   -13.2890 ca         1 BY9      -0.134600
      3 C11         15.0900     8.5200   -12.9670 cp         1 BY9      -0.006000
      4 C12         14.1610     7.6290   -12.2490 cp         1 BY9      -0.086000
      5 C13         12.9350     7.8480   -11.5820 ca         1 BY9      -0.038000
      6 C14         12.2920     6.7580   -10.9560 ca         1 BY9      -0.144000
      7 C15         12.8640     5.4650   -10.9840 ca         1 BY9      -0.074000
      8 C16         14.0880     5.2420   -11.6430 ca         1 BY9      -0.139000
      9 C17         14.7030     6.3400   -12.2620 ca         1 BY9       0.002800
     10 C18         16.1890     7.7470   -13.3870 ca         1 BY9      -0.023200
     11 C19         17.2840     8.3280   -14.0660 ca         1 BY9      -0.009200
     12 C2          21.0670     9.7570   -16.4210 ca         1 BY9      -0.075000
     13 C20         19.2710     8.7430   -15.1920 ca         1 BY9      -0.005200
     14 C21         16.4250     5.2420   -13.7210 c6         1 BY9       0.293300
     15 C22         16.0430     5.2660   -15.2400 c6         1 BY9       0.078300
     16 C23         16.7060     4.0430   -15.9320 c6         1 BY9       0.170300
     17 C24         18.2450     4.0390   -15.6940 c6         1 BY9       0.148300
     18 C25         18.5290     4.0880   -14.1580 c6         1 BY9       0.143300
     19 C26         20.0480     4.2310   -13.8310 c3         1 BY9       0.162600
     20 C3          20.3840    10.9940   -16.3610 ca         1 BY9      -0.150000
     21 C4          19.1330    11.1030   -15.7120 ca         1 BY9      -0.036000
     22 C5          18.5720     9.9510   -15.1160 cp         1 BY9      -0.093000
     23 C6          17.3170     9.6950   -14.3920 cp         1 BY9      -0.021000
     24 C7          16.2000    10.4720   -13.9820 ca         1 BY9      -0.111600
     25 C8          15.9290    11.9320   -14.1530 c          1 BY9       0.594600
     26 C9          14.1360    10.9880   -13.0040 c          1 BY9       0.598600
     27 N1          14.7150    12.0980   -13.5500 ns         1 BY9      -0.491500
     28 N2          15.9000     6.4250   -12.9930 na         1 BY9      -0.093600
     29 N3          18.4930     7.7880   -14.5280 na         1 BY9      -0.214600
     30 O1          16.5910    12.8040   -14.6860 o          1 BY9      -0.499000
     31 O2          13.0590    10.9490   -12.4370 o          1 BY9      -0.503000
     32 O3          14.6110     5.2350   -15.4620 oh         1 BY9      -0.715000
     33 O4          16.4040     4.0580   -17.3360 oh         1 BY9      -0.641000
     34 O5          18.8290     2.8740   -16.3120 oh         1 BY9      -0.701000
     35 O6          17.8590     5.2290   -13.5640 os         1 BY9      -0.469000
     36 O7          20.5800     5.5260   -14.1810 oh         1 BY9      -0.736000
     37 H20         21.0190     7.6490   -15.8720 ha         1 BY9       0.121000
     38 H5          12.4770     8.8270   -11.5330 ha         1 BY9       0.147000
     39 H6          11.3480     6.9160   -10.4400 ha         1 BY9       0.119000
     40 H7          12.3560     4.6380   -10.4910 ha         1 BY9       0.114000
     41 H21         14.5330     4.2510   -11.6590 ha         1 BY9       0.117000
     42 H1          22.0280     9.6920   -16.9270 ha         1 BY9       0.111000
     43 H9          15.9990     4.3480   -13.2460 h2         1 BY9       0.072700
     44 H10         16.4690     6.1770   -15.6860 h1         1 BY9       0.070700
     45 H11         16.2870     3.1330   -15.4760 h1         1 BY9       0.053700
     46 H12         18.6630     4.9510   -16.1470 h1         1 BY9       0.070700
     47 H13         18.1560     3.1680   -13.6860 h1         1 BY9       0.063700
     48 H14         20.1730     4.0550   -12.7530 h1         1 BY9       0.044700
     49 H15         20.5980     3.4350   -14.3510 h1         1 BY9       0.044700
     50 H2          20.8250    11.8740   -16.8230 ha         1 BY9       0.116000
     51 H3          18.6300    12.0610   -15.6890 ha         1 BY9       0.143000
     52 H4          14.2670    12.9990   -13.5100 hn         1 BY9       0.346500
     53 H8          18.8170     6.8470   -14.3010 hn         1 BY9       0.386000
     54 H22         14.2220     6.0200   -15.0070 ho         1 BY9       0.527000
     55 H16         15.4690     4.3650   -17.3810 ho         1 BY9       0.462000
     56 H18         18.3750     2.7920   -17.1850 ho         1 BY9       0.516000
     57 H23         21.5270     5.5290   -13.9070 ho         1 BY9       0.518000
@<TRIPOS>BOND
     1     1    12 ar  
     2     1    13 ar  
     3     1    37 1   
     4     2     3 ar  
     5     2    24 ar  
     6     2    26 1   
     7     3     4 1   
     8     3    10 ar  
     9     4     5 ar  
    10     4     9 ar  
    11     5     6 ar  
    12     5    38 1   
    13     6     7 ar  
    14     6    39 1   
    15     7     8 ar  
    16     7    40 1   
    17     8     9 ar  
    18     8    41 1   
    19     9    28 1   
    20    10    11 ar  
    21    10    28 1   
    22    11    23 ar  
    23    11    29 1   
    24    12    20 ar  
    25    12    42 1   
    26    13    22 ar  
    27    13    29 1   
    28    14    15 1   
    29    14    28 1   
    30    14    35 1   
    31    14    43 1   
    32    15    16 1   
    33    15    32 1   
    34    15    44 1   
    35    16    17 1   
    36    16    33 1   
    37    16    45 1   
    38    17    18 1   
    39    17    34 1   
    40    17    46 1   
    41    18    19 1   
    42    18    35 1   
    43    18    47 1   
    44    19    36 1   
    45    19    48 1   
    46    19    49 1   
    47    20    21 ar  
    48    20    50 1   
    49    21    22 ar  
    50    21    51 1   
    51    22    23 1   
    52    23    24 ar  
    53    24    25 1   
    54    25    27 1   
    55    25    30 2   
    56    26    27 1   
    57    26    31 2   
    58    27    52 1   
    59    29    53 1   
    60    32    54 1   
    61    33    55 1   
    62    34    56 1   
    63    36    57 1   
@<TRIPOS>SUBSTRUCTURE
     1 BY9         1 TEMP              0 ****  ****    0 ROOT
