@<TRIPOS>MOLECULE
BY9
   57    63     1     0     0
SMALL
abcg2


@<TRIPOS>ATOM
      1 C1          20.3140     8.6200   -15.9760 ca         1 BY9      -0.145000
      2 C10         15.1920     9.9620   -13.1640 ca         1 BY9      -0.134600
      3 C11         15.1300     8.5830   -12.9440 cp         1 BY9      -0.006000
      4 C12         14.2240     7.7050   -12.2500 cp         1 BY9      -0.086000
      5 C13         13.0590     7.9030   -11.5040 ca         1 BY9      -0.038000
      6 C14         12.4130     6.8080   -10.9650 ca         1 BY9      -0.144000
      7 C15         12.9140     5.5160   -11.1600 ca         1 BY9      -0.074000
      8 C16         14.0640     5.2930   -11.8930 ca         1 BY9      -0.139000
      9 C17         14.7160     6.4000   -12.4310 ca         1 BY9       0.002800
     10 C18         16.1410     7.7660   -13.4990 ca         1 BY9      -0.023200
     11 C19         17.2110     8.3480   -14.1940 ca         1 BY9      -0.009200
     12 C2          20.8950     9.7670   -16.4850 ca         1 BY9      -0.075000
     13 C20         19.0930     8.7570   -15.3220 ca         1 BY9      -0.005200
     14 C21         16.4320     5.2740   -13.8070 c6         1 BY9       0.293300
     15 C22         16.0800     5.1810   -15.2950 c6         1 BY9       0.078300
     16 C23         16.6870     3.9010   -15.8620 c6         1 BY9       0.170300
     17 C24         18.1870     3.9110   -15.6140 c6         1 BY9       0.148300
     18 C25         18.4640     4.1090   -14.1140 c6         1 BY9       0.143300
     19 C26         19.9340     4.2580   -13.7900 c3         1 BY9       0.162600
     20 C3          20.2780    11.0170   -16.3460 ca         1 BY9      -0.150000
     21 C4          19.0670    11.1470   -15.6940 ca         1 BY9      -0.036000
     22 C5          18.4570    10.0050   -15.1680 cp         1 BY9      -0.093000
     23 C6          17.2460     9.7480   -14.4290 cp         1 BY9      -0.021000
     24 C7          16.2160    10.5260   -13.9060 ca         1 BY9      -0.111600
     25 C8          15.9830    11.9880   -13.9720 c          1 BY9       0.594600
     26 C9          14.2910    11.0520   -12.7280 c          1 BY9       0.598600
     27 N1          14.8300    12.2110   -13.2500 ns         1 BY9      -0.491500
     28 N2          15.8770     6.4450   -13.1840 na         1 BY9      -0.093600
     29 N3          18.3230     7.7840   -14.7450 na         1 BY9      -0.214600
     30 O1          16.6300    12.8430   -14.5270 o          1 BY9      -0.499000
     31 O2          13.2880    11.0020   -12.0590 o          1 BY9      -0.503000
     32 O3          14.6870     5.1230   -15.4580 oh         1 BY9      -0.715000
     33 O4          16.4590     3.7950   -17.2400 oh         1 BY9      -0.641000
     34 O5          18.7300     2.6840   -16.0300 oh         1 BY9      -0.701000
     35 O6          17.8190     5.2770   -13.6190 os         1 BY9      -0.469000
     36 O7          20.4420     5.3650   -14.5000 oh         1 BY9      -0.736000
     37 H20         20.7860     7.6530   -16.0890 ha         1 BY9       0.121000
     38 H5          12.6680     8.8970   -11.3520 ha         1 BY9       0.147000
     39 H6          11.5110     6.9490   -10.3860 ha         1 BY9       0.119000
     40 H7          12.3940     4.6710   -10.7300 ha         1 BY9       0.114000
     41 H21         14.4290     4.2850   -12.0270 ha         1 BY9       0.117000
     42 H1          21.8430     9.6950   -17.0020 ha         1 BY9       0.111000
     43 H9          15.9930     4.4070   -13.3000 h2         1 BY9       0.072700
     44 H10         16.5110     6.0380   -15.8330 h1         1 BY9       0.070700
     45 H11         16.2510     3.0450   -15.3200 h1         1 BY9       0.053700
     46 H12         18.6170     4.7480   -16.1800 h1         1 BY9       0.070700
     47 H13         18.0870     3.2270   -13.5750 h1         1 BY9       0.063700
     48 H14         20.0440     4.3840   -12.7080 h1         1 BY9       0.044700
     49 H15         20.4470     3.3270   -14.0570 h1         1 BY9       0.044700
     50 H2          20.7600    11.8950   -16.7560 ha         1 BY9       0.116000
     51 H3          18.6030    12.1160   -15.5910 ha         1 BY9       0.143000
     52 H4          14.4210    13.1250   -13.1180 hn         1 BY9       0.346500
     53 H8          18.6420     6.8460   -14.5400 hn         1 BY9       0.386000
     54 H22         14.3440     6.0100   -15.5980 ho         1 BY9       0.527000
     55 H16         15.5070     3.8170   -17.3840 ho         1 BY9       0.462000
     56 H18         19.5900     2.8430   -16.4270 ho         1 BY9       0.516000
     57 H23         21.3050     5.5930   -14.1430 ho         1 BY9       0.518000
@<TRIPOS>BOND
     1     1    12 ar  
     2     1    13 ar  
     3     1    37 1   
     4     2     3 ar  
     5     2    24 ar  
     6     2    26 1   
     7     3     4 1   
     8     3    10 ar  
     9     4     5 ar  
    10     4     9 ar  
    11     5     6 ar  
    12     5    38 1   
    13     6     7 ar  
    14     6    39 1   
    15     7     8 ar  
    16     7    40 1   
    17     8     9 ar  
    18     8    41 1   
    19     9    28 1   
    20    10    11 ar  
    21    10    28 1   
    22    11    23 ar  
    23    11    29 1   
    24    12    20 ar  
    25    12    42 1   
    26    13    22 ar  
    27    13    29 1   
    28    14    15 1   
    29    14    28 1   
    30    14    35 1   
    31    14    43 1   
    32    15    16 1   
    33    15    32 1   
    34    15    44 1   
    35    16    17 1   
    36    16    33 1   
    37    16    45 1   
    38    17    18 1   
    39    17    34 1   
    40    17    46 1   
    41    18    19 1   
    42    18    35 1   
    43    18    47 1   
    44    19    36 1   
    45    19    48 1   
    46    19    49 1   
    47    20    21 ar  
    48    20    50 1   
    49    21    22 ar  
    50    21    51 1   
    51    22    23 1   
    52    23    24 ar  
    53    24    25 1   
    54    25    27 1   
    55    25    30 2   
    56    26    27 1   
    57    26    31 2   
    58    27    52 1   
    59    29    53 1   
    60    32    54 1   
    61    33    55 1   
    62    34    56 1   
    63    36    57 1   
@<TRIPOS>SUBSTRUCTURE
     1 BY9         1 TEMP              0 ****  ****    0 ROOT
