@<TRIPOS>MOLECULE
BYA
   24    24     1     0     0
SMALL
abcg2


@<TRIPOS>ATOM
      1 C2          -4.1690     0.3470    -0.0650 c          1 BYA       0.723000
      2 C4          -2.6780     0.7320    -0.1010 c3         1 BYA      -0.230400
      3 C5          -1.7280    -0.4450     0.0020 c3         1 BYA       0.111000
      4 N6          -0.3500     0.0110    -0.0430 ns         1 BYA      -0.487900
      5 C7           0.6850    -0.7830     0.2620 c          1 BYA       0.593700
      6 C9           2.0480    -0.1760     0.1400 ca         1 BYA      -0.134600
      7 C14          3.1280    -1.0250    -0.0910 ca         1 BYA      -0.076500
      8 C13          4.4110    -0.5140    -0.2100 ca         1 BYA      -0.127500
      9 C12          4.6330     0.8510    -0.0780 ca         1 BYA      -0.107000
     10 C11          3.5650     1.7020     0.1720 ca         1 BYA      -0.127500
     11 C10          2.2780     1.1920     0.2770 ca         1 BYA      -0.076500
     12 O8           0.5450    -1.9470     0.6220 o          1 BYA      -0.621100
     13 O3          -4.9770     1.2950    -0.1350 o          1 BYA      -0.732500
     14 O1          -4.4480    -0.8640     0.0280 o          1 BYA      -0.732500
     15 H4          -2.4900     1.2860    -1.0270 hc         1 BYA       0.020700
     16 H4A         -2.4810     1.4400     0.7110 hc         1 BYA       0.020700
     17 H5          -1.8900    -0.9810     0.9370 h1         1 BYA       0.059200
     18 H5A         -1.9150    -1.1570    -0.8060 h1         1 BYA       0.059200
     19 HN6         -0.1690     0.8960    -0.4880 hn         1 BYA       0.301500
     20 H14          2.9630    -2.0910    -0.1860 ha         1 BYA       0.126500
     21 H13          5.2400    -1.1830    -0.4030 ha         1 BYA       0.106500
     22 H12          5.6360     1.2490    -0.1650 ha         1 BYA       0.102000
     23 H11          3.7310     2.7640     0.2900 ha         1 BYA       0.106500
     24 H10          1.4640     1.8730     0.4930 ha         1 BYA       0.126500
@<TRIPOS>BOND
     1     1     2 1   
     2     1    13 1   
     3     1    14 1   
     4     2     3 1   
     5     2    15 1   
     6     2    16 1   
     7     3     4 1   
     8     3    17 1   
     9     3    18 1   
    10     4     5 1   
    11     4    19 1   
    12     5     6 1   
    13     5    12 2   
    14     6     7 ar  
    15     6    11 ar  
    16     7     8 ar  
    17     7    20 1   
    18     8     9 ar  
    19     8    21 1   
    20     9    10 ar  
    21     9    22 1   
    22    10    11 ar  
    23    10    23 1   
    24    11    24 1   
@<TRIPOS>SUBSTRUCTURE
     1 BYA         1 TEMP              0 ****  ****    0 ROOT
