@<TRIPOS>MOLECULE
BYA
   24    24     1     0     0
SMALL
No Charge or Current Charge


@<TRIPOS>ATOM
      1 C2          -4.1800     0.3340    -0.0480 c          1 BYA       0.723000
      2 C4          -2.7300     0.8250    -0.1030 c3         1 BYA      -0.230400
      3 C5          -1.7930    -0.3830     0.0640 c3         1 BYA       0.111000
      4 N6          -0.3900     0.0270     0.0200 ns         1 BYA      -0.487900
      5 C7           0.6780    -0.8350     0.1420 c          1 BYA       0.593700
      6 C9           2.0640    -0.2220     0.0710 ca         1 BYA      -0.134600
      7 C14          3.2000    -1.0570     0.1900 ca         1 BYA      -0.076500
      8 C13          4.4970    -0.5200     0.1280 ca         1 BYA      -0.127500
      9 C12          4.6820     0.8580    -0.0530 ca         1 BYA      -0.107000
     10 C11          3.5660     1.7010    -0.1730 ca         1 BYA      -0.127500
     11 C10          2.2660     1.1690    -0.1120 ca         1 BYA      -0.076500
     12 O8           0.5010    -2.0370     0.3010 o          1 BYA      -0.621100
     13 O3          -4.7230     0.2650     1.0430 o          1 BYA      -0.732500
     14 O1          -4.7070    -0.0180    -1.0920 o          1 BYA      -0.732500
     15 H4          -2.5000     1.2540    -1.0860 hc         1 BYA       0.020700
     16 H4A         -2.5140     1.4960     0.7380 hc         1 BYA       0.020700
     17 H5          -1.9890    -0.8760     1.0260 h1         1 BYA       0.059200
     18 H5A         -1.9760    -1.1100    -0.7390 h1         1 BYA       0.059200
     19 HN6         -0.1810     1.0070    -0.1090 hn         1 BYA       0.301500
     20 H14          3.0800    -2.1290     0.3320 ha         1 BYA       0.126500
     21 H13          5.3600    -1.1760     0.2220 ha         1 BYA       0.106500
     22 H12          5.6860     1.2730    -0.1010 ha         1 BYA       0.102000
     23 H11          3.7080     2.7700    -0.3140 ha         1 BYA       0.106500
     24 H10          1.4280     1.8550    -0.2090 ha         1 BYA       0.126500
@<TRIPOS>BOND
     1     1     2 1   
     2     1    13 1   
     3     1    14 1   
     4     2     3 1   
     5     2    15 1   
     6     2    16 1   
     7     3     4 1   
     8     3    17 1   
     9     3    18 1   
    10     4     5 1   
    11     4    19 1   
    12     5     6 1   
    13     5    12 2   
    14     6     7 ar  
    15     6    11 ar  
    16     7     8 ar  
    17     7    20 1   
    18     8     9 ar  
    19     8    21 1   
    20     9    10 ar  
    21     9    22 1   
    22    10    11 ar  
    23    10    23 1   
    24    11    24 1   
@<TRIPOS>SUBSTRUCTURE
     1 BYA         1 TEMP              0 ****  ****    0 ROOT
