@<TRIPOS>MOLECULE
BYB
   46    50     1     0     0
SMALL
abcg2


@<TRIPOS>ATOM
      1 C1           5.7500    -0.3340    -0.9100 ca         1 BYB       0.055000
      2 C2           5.9600     0.9210    -1.5010 ca         1 BYB       0.336900
      3 C4           4.5150    -0.7480    -0.4820 ca         1 BYB      -0.017000
      4 C5           3.4770     0.1670    -0.6770 ca         1 BYB      -0.207900
      5 C6           3.7950     1.3960    -1.2780 ca         1 BYB       0.338500
      6 N3           4.9920     1.7930    -1.6900 nb         1 BYB      -0.664000
      7 N7           2.6340     2.0880    -1.3510 na         1 BYB      -0.156100
      8 N8           1.6140     1.4090    -0.8510 nc         1 BYB      -0.434100
      9 C9           2.0760     0.2500    -0.4340 cd         1 BYB       0.302900
     10 C10          1.2090    -0.7590     0.1800 ca         1 BYB       0.167700
     11 N11         -0.0760    -0.4580     0.3170 nb         1 BYB      -0.222000
     12 C12         -0.8790    -1.3600     0.8750 ca         1 BYB       0.388900
     13 C13         -0.3170    -2.5910     1.2860 ca         1 BYB      -0.038000
     14 C14          1.0120    -2.8090     1.1000 ca         1 BYB       0.099900
     15 N15          1.8030    -1.8840     0.5380 nb         1 BYB      -0.242000
     16 N16         -2.1750    -1.0940     1.0430 nu         1 BYB      -0.868100
     17 C17         -2.8170     0.1340     0.6070 c6         1 BYB       0.245500
     18 C18         -3.0930     0.1460    -0.9020 c6         1 BYB      -0.079700
     19 C19         -4.1990    -0.8480    -1.2490 c6         1 BYB      -0.065400
     20 C20         -5.5070    -0.4200    -0.5490 c6         1 BYB      -0.071900
     21 C21         -5.2290     0.7550     0.3900 c6         1 BYB      -0.040700
     22 C22         -4.1310     0.3510     1.3800 c6         1 BYB      -0.200700
     23 F23          6.8130    -1.1390    -0.7680 f          1 BYB      -0.182000
     24 F24         -1.1080    -3.5190     1.8460 f          1 BYB      -0.180000
     25 C25         -3.9960     1.3130     2.5850 c          1 BYB       0.719000
     26 O26         -5.0650     1.7270     3.0780 o          1 BYB      -0.723500
     27 O27         -2.8490     1.5730     2.9970 o          1 BYB      -0.723500
     28 C28         -3.5360     1.5610    -1.2760 c6         1 BYB      -0.065400
     29 C29         -4.7720     1.9560    -0.4370 c6         1 BYB      -0.071900
     30 H1           6.9580     1.2000    -1.8210 h4         1 BYB       0.028100
     31 H2           4.3560    -1.7150    -0.0260 ha         1 BYB       0.163000
     32 H3           2.4900     3.0110    -1.7300 hn         1 BYB       0.389000
     33 H4           1.4660    -3.7460     1.4060 h4         1 BYB       0.020100
     34 H5          -2.7490    -1.8010     1.4730 hn         1 BYB       0.502000
     35 H6          -2.1270     0.9490     0.8290 h1         1 BYB       0.114700
     36 H7          -2.1730    -0.1050    -1.4350 hc         1 BYB       0.048700
     37 H8          -4.3280    -0.8880    -2.3330 hc         1 BYB       0.025700
     38 H9          -3.9040    -1.8550    -0.9440 hc         1 BYB       0.025700
     39 H10         -6.2670    -0.1370    -1.2820 hc         1 BYB       0.030950
     40 H11         -5.9280    -1.2520     0.0230 hc         1 BYB       0.030950
     41 H12         -6.1330     1.0050     0.9470 hc         1 BYB       0.077700
     42 H13         -4.4470    -0.6100     1.8140 hc         1 BYB       0.029700
     43 H15         -2.7130     2.2600    -1.1080 hc         1 BYB       0.025700
     44 H16         -3.7620     1.6010    -2.3450 hc         1 BYB       0.025700
     45 H17         -5.5880     2.2900    -1.0820 hc         1 BYB       0.030950
     46 H18         -4.5460     2.7980     0.2220 hc         1 BYB       0.030950
@<TRIPOS>BOND
     1     1     2 ar  
     2     1     3 ar  
     3     1    23 1   
     4     2     6 ar  
     5     2    30 1   
     6     3     4 ar  
     7     3    31 1   
     8     4     5 ar  
     9     4     9 1   
    10     5     6 ar  
    11     5     7 1   
    12     7     8 1   
    13     7    32 1   
    14     8     9 2   
    15     9    10 1   
    16    10    11 ar  
    17    10    15 ar  
    18    11    12 ar  
    19    12    13 ar  
    20    12    16 1   
    21    13    14 ar  
    22    13    24 1   
    23    14    15 ar  
    24    14    33 1   
    25    16    17 1   
    26    16    34 1   
    27    17    18 1   
    28    17    22 1   
    29    17    35 1   
    30    18    19 1   
    31    18    28 1   
    32    18    36 1   
    33    19    20 1   
    34    19    37 1   
    35    19    38 1   
    36    20    21 1   
    37    20    39 1   
    38    20    40 1   
    39    21    22 1   
    40    21    29 1   
    41    21    41 1   
    42    22    25 1   
    43    22    42 1   
    44    25    26 1   
    45    25    27 1   
    46    28    29 1   
    47    28    43 1   
    48    28    44 1   
    49    29    45 1   
    50    29    46 1   
@<TRIPOS>SUBSTRUCTURE
     1 BYB         1 TEMP              0 ****  ****    0 ROOT
