@<TRIPOS>MOLECULE
BYB
   46    50     1     0     0
SMALL
No Charge or Current Charge


@<TRIPOS>ATOM
      1 C1           5.8770    -0.4940    -0.8160 ca         1 BYB       0.055000
      2 C2           6.1910     0.7890    -1.3230 ca         1 BYB       0.336900
      3 C4           4.5470    -0.7860    -0.4690 ca         1 BYB      -0.017000
      4 C5           3.6110     0.2480    -0.6660 ca         1 BYB      -0.207900
      5 C6           3.9930     1.4700    -1.1560 ca         1 BYB       0.338500
      6 N3           5.2640     1.7700    -1.4930 nb         1 BYB      -0.664000
      7 N7           2.8600     2.2530    -1.2080 na         1 BYB      -0.156100
      8 N8           1.7240     1.5660    -0.7560 nc         1 BYB      -0.434100
      9 C9           2.1760     0.3440    -0.4280 cd         1 BYB       0.302900
     10 C10          1.2730    -0.7280     0.0850 ca         1 BYB       0.167700
     11 N11         -0.0000    -0.3660     0.3820 nb         1 BYB      -0.222000
     12 C12         -0.8300    -1.3200     0.8470 ca         1 BYB       0.388900
     13 C13         -0.3890    -2.6460     1.0220 ca         1 BYB      -0.038000
     14 C14          0.9440    -2.9340     0.6940 ca         1 BYB       0.099900
     15 N15          1.7730    -1.9790     0.2270 nb         1 BYB      -0.242000
     16 N16         -2.1450    -0.9530     1.1470 nu         1 BYB      -0.868100
     17 C17         -2.8270     0.2620     0.6620 c6         1 BYB       0.245500
     18 C18         -3.1350     0.1550    -0.8720 c6         1 BYB      -0.079700
     19 C19         -4.2290    -0.9310    -1.1310 c6         1 BYB      -0.065400
     20 C20         -5.5420    -0.5730    -0.3660 c6         1 BYB      -0.071900
     21 C21         -5.3420     0.7340     0.4610 c6         1 BYB      -0.040700
     22 C22         -4.1540     0.4860     1.4580 c6         1 BYB      -0.200700
     23 F23          6.8430    -1.4310    -0.6620 f          1 BYB      -0.182000
     24 F24         -1.2130    -3.6170     1.4870 f          1 BYB      -0.180000
     25 C25         -4.0050     1.5760     2.5440 c          1 BYB       0.719000
     26 O26         -4.2440     1.2600     3.7010 o          1 BYB      -0.723500
     27 O27         -3.6110     2.6870     2.2220 o          1 BYB      -0.723500
     28 C28         -3.6990     1.5300    -1.3390 c6         1 BYB      -0.065400
     29 C29         -4.9990     1.8760    -0.5480 c6         1 BYB      -0.071900
     30 H1           7.2160     1.0390    -1.5980 h4         1 BYB       0.028100
     31 H2           4.2860    -1.7620    -0.0710 ha         1 BYB       0.163000
     32 H3           2.8250     3.2160    -1.5280 hn         1 BYB       0.389000
     33 H4           1.3550    -3.9370     0.8030 h4         1 BYB       0.020100
     34 H5          -2.7290    -1.7190     1.4780 hn         1 BYB       0.502000
     35 H6          -2.1760     1.1400     0.8120 h1         1 BYB       0.114700
     36 H7          -2.2220    -0.0800    -1.4360 hc         1 BYB       0.048700
     37 H8          -4.4340    -1.0050    -2.2080 hc         1 BYB       0.025700
     38 H9          -3.8680    -1.9210    -0.8210 hc         1 BYB       0.025700
     39 H10         -6.3690    -0.4450    -1.0780 hc         1 BYB       0.030950
     40 H11         -5.8320    -1.4020     0.2940 hc         1 BYB       0.030950
     41 H12         -6.2620     0.9750     1.0130 hc         1 BYB       0.077700
     42 H13         -4.4160    -0.4350     1.9980 hc         1 BYB       0.029700
     43 H15         -2.9470     2.3170    -1.1890 hc         1 BYB       0.025700
     44 H16         -3.9100     1.5050    -2.4170 hc         1 BYB       0.025700
     45 H17         -5.8330     2.0110    -1.2510 hc         1 BYB       0.030950
     46 H18         -4.8880     2.8380    -0.0320 hc         1 BYB       0.030950
@<TRIPOS>BOND
     1     1     2 ar  
     2     1     3 ar  
     3     1    23 1   
     4     2     6 ar  
     5     2    30 1   
     6     3     4 ar  
     7     3    31 1   
     8     4     5 ar  
     9     4     9 1   
    10     5     6 ar  
    11     5     7 1   
    12     7     8 1   
    13     7    32 1   
    14     8     9 2   
    15     9    10 1   
    16    10    11 ar  
    17    10    15 ar  
    18    11    12 ar  
    19    12    13 ar  
    20    12    16 1   
    21    13    14 ar  
    22    13    24 1   
    23    14    15 ar  
    24    14    33 1   
    25    16    17 1   
    26    16    34 1   
    27    17    18 1   
    28    17    22 1   
    29    17    35 1   
    30    18    19 1   
    31    18    28 1   
    32    18    36 1   
    33    19    20 1   
    34    19    37 1   
    35    19    38 1   
    36    20    21 1   
    37    20    39 1   
    38    20    40 1   
    39    21    22 1   
    40    21    29 1   
    41    21    41 1   
    42    22    25 1   
    43    22    42 1   
    44    25    26 1   
    45    25    27 1   
    46    28    29 1   
    47    28    43 1   
    48    28    44 1   
    49    29    45 1   
    50    29    46 1   
@<TRIPOS>SUBSTRUCTURE
     1 BYB         1 TEMP              0 ****  ****    0 ROOT
