@<TRIPOS>MOLECULE
BYD
   22    22     1     0     0
SMALL
No Charge or Current Charge


@<TRIPOS>ATOM
      1 CAA         -0.8610    -1.1280     0.0280 ca         1 BYD      -0.080250
      2 CAB          0.5340    -1.3000     0.0240 ca         1 BYD      -0.080250
      3 CAC          1.4080    -0.1910    -0.0160 ca         1 BYD      -0.134600
      4 CAD          0.8390     1.1050    -0.0550 ca         1 BYD      -0.080250
      5 CAE         -0.5560     1.2770    -0.0510 ca         1 BYD      -0.080250
      6 CAF         -1.4290     0.1680    -0.0110 ca         1 BYD      -0.134600
      7 CAG         -2.9300     0.3980    -0.0070 c          1 BYD       0.611700
      8 CAK          2.9090    -0.4210    -0.0190 c          1 BYD       0.611700
      9 NAI         -3.7390    -0.7350    -0.0370 ns         1 BYD      -0.382400
     10 NAL          3.7180     0.7120     0.0100 ns         1 BYD      -0.382400
     11 OAH         -3.4130     1.5240     0.0330 o          1 BYD      -0.558600
     12 OAJ         -5.1640    -0.6310    -0.2830 oh         1 BYD      -0.421100
     13 OAM          3.3920    -1.5470    -0.0600 o          1 BYD      -0.558600
     14 OAN          5.1430     0.6080     0.2560 oh         1 BYD      -0.421100
     15 HAA         -1.4840    -2.0180     0.0680 ha         1 BYD       0.131000
     16 HAB          0.9360    -2.3110     0.0550 ha         1 BYD       0.131000
     17 HAD          1.4620     1.9950    -0.0950 ha         1 BYD       0.131000
     18 HAE         -0.9580     2.2880    -0.0820 ha         1 BYD       0.131000
     19 HAI         -3.3190    -1.6410    -0.2310 hn         1 BYD       0.338000
     20 HAL          3.2980     1.6180     0.2040 hn         1 BYD       0.338000
     21 HAJ         -5.5660    -1.1680     0.4400 ho         1 BYD       0.446000
     22 HAN          5.5440     1.1450    -0.4680 ho         1 BYD       0.446000
@<TRIPOS>BOND
     1     1     2 ar  
     2     1     6 ar  
     3     1    15 1   
     4     2     3 ar  
     5     2    16 1   
     6     3     4 ar  
     7     3     8 1   
     8     4     5 ar  
     9     4    17 1   
    10     5     6 ar  
    11     5    18 1   
    12     6     7 1   
    13     7     9 1   
    14     7    11 2   
    15     8    10 1   
    16     8    13 2   
    17     9    12 1   
    18     9    19 1   
    19    10    14 1   
    20    10    20 1   
    21    12    21 1   
    22    14    22 1   
@<TRIPOS>SUBSTRUCTURE
     1 BYD         1 TEMP              0 ****  ****    0 ROOT
