@<TRIPOS>MOLECULE
BYD
   22    22     1     0     0
SMALL
abcg2


@<TRIPOS>ATOM
      1 CAA         -0.7910    -1.1370     0.1250 ca         1 BYD      -0.080250
      2 CAB          0.5890    -1.2390     0.1460 ca         1 BYD      -0.080250
      3 CAC          1.3790    -0.0960     0.2140 ca         1 BYD      -0.134600
      4 CAD          0.7660     1.1520     0.2990 ca         1 BYD      -0.080250
      5 CAE         -0.6150     1.2540     0.3010 ca         1 BYD      -0.080250
      6 CAF         -1.4040     0.1130     0.1970 ca         1 BYD      -0.134600
      7 CAG         -2.8890     0.2820     0.2160 c          1 BYD       0.611700
      8 CAK          2.8630    -0.2720     0.2610 c          1 BYD       0.611700
      9 NAI         -3.5590    -0.6750    -0.4610 ns         1 BYD      -0.382400
     10 NAL          3.5550     0.7140    -0.3310 ns         1 BYD      -0.382400
     11 OAH         -3.4300     1.1940     0.8120 o          1 BYD      -0.558600
     12 OAJ         -4.9030    -0.5350    -0.6340 oh         1 BYD      -0.421100
     13 OAM          3.3810    -1.2500     0.7720 o          1 BYD      -0.558600
     14 OAN          4.9080     0.7590    -0.2220 oh         1 BYD      -0.421100
     15 HAA         -1.3820    -2.0420     0.0840 ha         1 BYD       0.131000
     16 HAB          1.0510    -2.2170     0.1070 ha         1 BYD       0.131000
     17 HAD          1.3530     2.0570     0.3950 ha         1 BYD       0.131000
     18 HAE         -1.0770     2.2280     0.3850 ha         1 BYD       0.131000
     19 HAI         -3.1080    -1.2250    -1.1810 hn         1 BYD       0.338000
     20 HAL          3.1290     1.5160    -0.7710 hn         1 BYD       0.338000
     21 HAJ         -5.3150    -1.1440    -0.0080 ho         1 BYD       0.446000
     22 HAN          5.2630     0.3110    -1.0020 ho         1 BYD       0.446000
@<TRIPOS>BOND
     1     1     2 ar  
     2     1     6 ar  
     3     1    15 1   
     4     2     3 ar  
     5     2    16 1   
     6     3     4 ar  
     7     3     8 1   
     8     4     5 ar  
     9     4    17 1   
    10     5     6 ar  
    11     5    18 1   
    12     6     7 1   
    13     7     9 1   
    14     7    11 2   
    15     8    10 1   
    16     8    13 2   
    17     9    12 1   
    18     9    19 1   
    19    10    14 1   
    20    10    20 1   
    21    12    21 1   
    22    14    22 1   
@<TRIPOS>SUBSTRUCTURE
     1 BYD         1 TEMP              0 ****  ****    0 ROOT
