@<TRIPOS>MOLECULE
BYE
   36    38     1     0     0
SMALL
bcc


@<TRIPOS>ATOM
      1 C2          -3.6270     0.8900     0.7670 ca         1 BYE       0.041400
      2 C3          -4.2820     2.0950     0.9580 ca         1 BYE      -0.118000
      3 C4          -4.2110     3.0740    -0.0240 ca         1 BYE      -0.105000
      4 C5          -3.4930     2.8540    -1.1900 ca         1 BYE      -0.122000
      5 F5           6.0440     0.4470     0.5770 f          1 BYE      -0.238633
      6 C6          -2.8520     1.6400    -1.3860 ca         1 BYE      -0.116000
      7 F6           4.6700     2.0390     1.0230 f          1 BYE      -0.238633
      8 C7          -2.9190     0.6570    -0.4090 ca         1 BYE      -0.002200
      9 F7           5.0170     1.4550    -1.0190 f          1 BYE      -0.238633
     10 N8          -2.2490    -0.5700    -0.6020 na         1 BYE       0.137300
     11 N9          -2.9240    -1.7170    -0.8630 nc         1 BYE      -0.487800
     12 C10         -2.0180    -2.6510    -0.9930 cd         1 BYE       0.394200
     13 C11         -0.9290    -0.7940    -0.5660 cc         1 BYE       0.176300
     14 C12         -0.7150    -2.1320    -0.8100 cd         1 BYE      -0.398900
     15 N13          0.0860     0.0670    -0.3340 na         1 BYE      -0.706600
     16 C14          1.3490    -0.4400    -0.3810 cc         1 BYE       0.683200
     17 N15          1.6210    -1.6790    -0.6100 nd         1 BYE      -0.710100
     18 C16          0.6350    -2.6360    -0.8310 c          1 BYE       0.760100
     19 O17          0.9360    -3.8000    -1.0320 o          1 BYE      -0.525100
     20 C18          2.4400     0.5720    -0.1940 c3         1 BYE      -0.119700
     21 C19          3.7430    -0.0360     0.3240 c3         1 BYE      -0.113700
     22 C20          3.5940    -0.5450     1.7560 c3         1 BYE      -0.094100
     23 C21          4.8640     0.9760     0.2260 c3         1 BYE       0.657900
     24 CL1         -3.6720    -0.3190     1.9930 cl         1 BYE      -0.065400
     25 H1          -4.8360     2.2720     1.8690 ha         1 BYE       0.157000
     26 H2          -4.7190     4.0160     0.1330 ha         1 BYE       0.145000
     27 H3          -3.4370     3.6200    -1.9510 ha         1 BYE       0.147000
     28 H4          -2.3050     1.4450    -2.3000 ha         1 BYE       0.152000
     29 H5          -2.3080    -3.6670    -1.2130 h4         1 BYE       0.060100
     30 H6          -0.0700     1.0460    -0.1360 hn         1 BYE       0.461800
     31 H7           2.5840     1.0420    -1.1720 hc         1 BYE       0.072700
     32 H8           2.0920     1.3590     0.4790 hc         1 BYE       0.072700
     33 H9           4.0240    -0.8680    -0.3270 hc         1 BYE       0.117700
     34 H10          4.5240    -0.9560     2.1430 hc         1 BYE       0.055367
     35 H11          3.2600     0.2460     2.4280 hc         1 BYE       0.055367
     36 H12          2.8550    -1.3430     1.7880 hc         1 BYE       0.055367
@<TRIPOS>BOND
     1     1     2 ar  
     2     1     8 ar  
     3     1    24 1   
     4     2     3 ar  
     5     2    25 1   
     6     3     4 ar  
     7     3    26 1   
     8     4     6 ar  
     9     4    27 1   
    10     5    23 1   
    11     6     8 ar  
    12     6    28 1   
    13     7    23 1   
    14     8    10 1   
    15     9    23 1   
    16    10    11 1   
    17    10    13 1   
    18    11    12 2   
    19    12    14 1   
    20    12    29 1   
    21    13    14 2   
    22    13    15 1   
    23    14    18 1   
    24    15    16 1   
    25    15    30 1   
    26    16    17 2   
    27    16    20 1   
    28    17    18 1   
    29    18    19 2   
    30    20    21 1   
    31    20    31 1   
    32    20    32 1   
    33    21    22 1   
    34    21    23 1   
    35    21    33 1   
    36    22    34 1   
    37    22    35 1   
    38    22    36 1   
@<TRIPOS>SUBSTRUCTURE
     1 BYE         1 TEMP              0 ****  ****    0 ROOT
