@<TRIPOS>MOLECULE
BYE
   36    38     1     0     0
SMALL
No Charge or Current Charge


@<TRIPOS>ATOM
      1 C2          -2.5590     1.0120     1.0090 ca         1 BYE       0.133000
      2 C3          -3.1340     2.2310     1.4070 ca         1 BYE      -0.100000
      3 C4          -3.8700     3.0000     0.4900 ca         1 BYE      -0.087000
      4 C5          -4.0370     2.5480    -0.8290 ca         1 BYE      -0.104000
      5 F5           5.4140     0.4960     1.9960 f          1 BYE      -0.117333
      6 C6          -3.4640     1.3290    -1.2330 ca         1 BYE      -0.098000
      7 F6           4.5990     2.1290     0.7920 f          1 BYE      -0.117333
      8 C7          -2.7190     0.5540    -0.3200 ca         1 BYE      -0.002200
      9 F7           5.6510     0.4710    -0.1710 f          1 BYE      -0.117333
     10 N8          -2.1520    -0.6470    -0.7440 na         1 BYE       0.188000
     11 N9          -2.9340    -1.7330    -1.0970 nc         1 BYE      -0.487800
     12 C10         -1.9990    -2.6280    -1.4410 cd         1 BYE       0.328900
     13 C11         -0.8010    -0.9090    -0.8360 cc         1 BYE       0.264000
     14 C12         -0.6760    -2.1320    -1.3180 cd         1 BYE      -0.333600
     15 N13          0.2720    -0.0410    -0.7460 na         1 BYE      -0.900200
     16 C14          1.5430    -0.5770    -0.9340 cc         1 BYE       0.683200
     17 N15          1.6620    -1.8220    -1.3590 nd         1 BYE      -0.710100
     18 C16          0.6060    -2.6890    -1.6120 c          1 BYE       0.760100
     19 O17          0.7910    -3.8150    -2.0410 o          1 BYE      -0.525100
     20 C18          2.7570     0.2730    -0.6840 c3         1 BYE      -0.119700
     21 C19          3.4540     0.0160     0.6910 c3         1 BYE      -0.113700
     22 C20          2.4920     0.2950     1.8810 c3         1 BYE      -0.094100
     23 C21          4.7980     0.7910     0.8290 c3         1 BYE       0.294000
     24 Cl1         -1.6590     0.0750     2.2050 cl         1 BYE      -0.157000
     25 H1          -3.0090     2.5790     2.4300 ha         1 BYE       0.139000
     26 H2          -4.3140     3.9440     0.8020 ha         1 BYE       0.127000
     27 H3          -4.6090     3.1410    -1.5400 ha         1 BYE       0.129000
     28 H4          -3.5960     0.9850    -2.2570 ha         1 BYE       0.134000
     29 H5          -2.3090    -3.6040    -1.7940 h4         1 BYE       0.060100
     30 H6           0.1620     0.9310    -0.4810 hn         1 BYE       0.517000
     31 H7           3.4710     0.0880    -1.4950 hc         1 BYE       0.072700
     32 H8           2.4860     1.3320    -0.7630 hc         1 BYE       0.072700
     33 H9           3.7110    -1.0520     0.7310 hc         1 BYE       0.117700
     34 H10          2.9820     0.0940     2.8410 hc         1 BYE       0.055367
     35 H11          2.1590     1.3410     1.8820 hc         1 BYE       0.055367
     36 H12          1.6030    -0.3450     1.8300 hc         1 BYE       0.055367
@<TRIPOS>BOND
     1     1     2 ar  
     2     1     8 ar  
     3     1    24 1   
     4     2     3 ar  
     5     2    25 1   
     6     3     4 ar  
     7     3    26 1   
     8     4     6 ar  
     9     4    27 1   
    10     5    23 1   
    11     6     8 ar  
    12     6    28 1   
    13     7    23 1   
    14     8    10 1   
    15     9    23 1   
    16    10    11 1   
    17    10    13 1   
    18    11    12 2   
    19    12    14 1   
    20    12    29 1   
    21    13    14 2   
    22    13    15 1   
    23    14    18 1   
    24    15    16 1   
    25    15    30 1   
    26    16    17 2   
    27    16    20 1   
    28    17    18 1   
    29    18    19 2   
    30    20    21 1   
    31    20    31 1   
    32    20    32 1   
    33    21    22 1   
    34    21    23 1   
    35    21    33 1   
    36    22    34 1   
    37    22    35 1   
    38    22    36 1   
@<TRIPOS>SUBSTRUCTURE
     1 BYE         1 TEMP              0 ****  ****    0 ROOT
