@<TRIPOS>MOLECULE
BYH
   39    42     1     0     0
SMALL
No Charge or Current Charge


@<TRIPOS>ATOM
      1 CAA          4.9180     1.1350    -2.0120 c3         1 BYH       0.086300
      2 CAC         -6.8100    -0.7880    -1.0260 ca         1 BYH      -0.093000
      3 CAD         -5.9550    -1.2200    -2.0670 ca         1 BYH      -0.133000
      4 CAE          4.5560    -2.9850    -0.1220 ca         1 BYH      -0.103000
      5 CAF          3.5230    -3.0640     0.8410 ca         1 BYH      -0.103000
      6 CAG         -6.2700    -0.2070     0.1400 ca         1 BYH      -0.115000
      7 CAH         -4.5550    -1.0740    -1.9490 ca         1 BYH      -0.050000
      8 CAI          4.8020    -1.7760    -0.8060 ca         1 BYH      -0.097000
      9 CAJ          2.7300    -1.9330     1.1270 ca         1 BYH      -0.096000
     10 CAK         -0.0040     0.4550     0.6790 c3         1 BYH       0.033600
     11 NAM         -4.1240     0.4460     1.2350 na         1 BYH      -0.304600
     12 NAN         -2.7070    -0.2600    -0.4680 nc         1 BYH      -0.587100
     13 SAO         -1.4730     0.8490     1.7300 ss         1 BYH      -0.244200
     14 CAP         -2.8300     0.3000     0.7440 cd         1 BYH       0.435700
     15 CAQ          3.2050     1.4800    -0.1730 cs         1 BYH       0.412400
     16 CAR         -4.8770    -0.0780     0.2210 ca         1 BYH      -0.073200
     17 CAS         -4.0370    -0.4930    -0.7820 ca         1 BYH       0.075400
     18 CAT          3.9270    -0.7020    -0.5810 ca         1 BYH      -0.017400
     19 CAU          2.9260    -0.7770     0.3560 ca         1 BYH      -0.015400
     20 NAV          4.0850     0.6740    -0.8870 n          1 BYH      -0.204000
     21 NAW          2.5030     0.5570     0.5950 n          1 BYH      -0.211000
     22 HAA          4.4480     1.9950    -2.5040 h1         1 BYH       0.066033
     23 HAAA         5.9070     1.4290    -1.6390 h1         1 BYH       0.066033
     24 HAAB         5.0350     0.3310    -2.7490 h1         1 BYH       0.066033
     25 HAD         -6.3780    -1.6680    -2.9640 ha         1 BYH       0.114000
     26 HAE          5.1980    -3.8460    -0.2990 ha         1 BYH       0.121000
     27 HAF          3.3740    -3.9850     1.4000 ha         1 BYH       0.121000
     28 HAG         -6.9150     0.1300     0.9480 ha         1 BYH       0.118000
     29 HAH         -3.8920    -1.4030    -2.7450 ha         1 BYH       0.128000
     30 HAI          5.6510    -1.6790    -1.4780 ha         1 BYH       0.128000
     31 HAJ          1.9970    -1.9590     1.9300 ha         1 BYH       0.129000
     32 HAK         -0.0880     0.9900    -0.2750 h1         1 BYH       0.100200
     33 HAKA         0.0110    -0.6230     0.4710 h1         1 BYH       0.100200
     34 HNAM        -4.4130     0.8410     2.1200 hn         1 BYH       0.365000
     35 SAB          2.9630     3.1360    -0.3020 s          1 BYH      -0.617400
     36 CAL          1.2990     0.8660     1.3880 c3         1 BYH       0.116000
     37 HAC         -7.8880    -0.9050    -1.1240 ha         1 BYH       0.113000
     38 HAL          1.2680     1.9410     1.6030 h1         1 BYH       0.083700
     39 HALA         1.3680     0.3440     2.3510 h1         1 BYH       0.083700
@<TRIPOS>BOND
     1     1    20 1   
     2     1    22 1   
     3     1    23 1   
     4     1    24 1   
     5     2     3 ar  
     6     2     6 ar  
     7     2    37 1   
     8     3     7 ar  
     9     3    25 1   
    10     4     5 ar  
    11     4     8 ar  
    12     4    26 1   
    13     5     9 ar  
    14     5    27 1   
    15     6    16 ar  
    16     6    28 1   
    17     7    17 ar  
    18     7    29 1   
    19     8    18 ar  
    20     8    30 1   
    21     9    19 ar  
    22     9    31 1   
    23    10    13 1   
    24    10    32 1   
    25    10    33 1   
    26    10    36 1   
    27    11    14 1   
    28    11    16 1   
    29    11    34 1   
    30    12    14 2   
    31    12    17 1   
    32    13    14 1   
    33    15    20 1   
    34    15    21 1   
    35    15    35 2   
    36    16    17 ar  
    37    18    19 ar  
    38    18    20 1   
    39    19    21 1   
    40    21    36 1   
    41    36    38 1   
    42    36    39 1   
@<TRIPOS>SUBSTRUCTURE
     1 BYH         1 TEMP              0 ****  ****    0 ROOT
