@<TRIPOS>MOLECULE
BYH
   39    42     1     0     0
SMALL
bcc


@<TRIPOS>ATOM
      1 CAA          4.8800     1.1430    -1.9250 c3         1 BYH       0.086300
      2 CAC         -6.7070    -0.8240    -0.9880 ca         1 BYH      -0.111000
      3 CAD         -5.8470    -1.2780    -1.9970 ca         1 BYH      -0.151000
      4 CAE          4.5670    -2.9410    -0.1160 ca         1 BYH      -0.121000
      5 CAF          3.5450    -3.0510     0.8280 ca         1 BYH      -0.121000
      6 CAG         -6.2230    -0.1910     0.1460 ca         1 BYH      -0.133000
      7 CAH         -4.4740    -1.1130    -1.9050 ca         1 BYH      -0.068000
      8 CAI          4.8150    -1.7450    -0.7780 ca         1 BYH      -0.115000
      9 CAJ          2.7320    -1.9710     1.1460 ca         1 BYH      -0.114000
     10 CAK         -0.0430     0.5750     0.6010 c3         1 BYH      -0.014300
     11 NAM         -4.0310     0.5320     1.1790 na         1 BYH      -0.254300
     12 NAN         -2.6670    -0.1900    -0.4260 nc         1 BYH      -0.587100
     13 SAO         -1.4320     0.9980     1.6900 ss         1 BYH      -0.196300
     14 CAP         -2.7550     0.4030     0.7300 cd         1 BYH       0.435700
     15 CAQ          2.9870     1.3210    -0.3100 cs         1 BYH       0.546400
     16 CAR         -4.8460    -0.0310     0.2290 ca         1 BYH      -0.073200
     17 CAS         -3.9690    -0.4790    -0.7720 ca         1 BYH       0.075400
     18 CAT          4.0030    -0.6710    -0.4580 ca         1 BYH      -0.017400
     19 CAU          2.9830    -0.7810     0.4850 ca         1 BYH      -0.015400
     20 NAV          3.9800     0.6270    -0.9230 n          1 BYH      -0.271000
     21 NAW          2.3890     0.4630     0.5610 n          1 BYH      -0.278000
     22 HAA          4.6720     2.1990    -2.0710 h1         1 BYH       0.066033
     23 HAAA         5.9120     1.0230    -1.6010 h1         1 BYH       0.066033
     24 HAAB         4.7370     0.6170    -2.8680 h1         1 BYH       0.066033
     25 HAD         -6.2670    -1.7660    -2.8660 ha         1 BYH       0.132000
     26 HAE          5.1800    -3.8040    -0.3390 ha         1 BYH       0.139000
     27 HAF          3.3810    -3.9980     1.3250 ha         1 BYH       0.139000
     28 HAG         -6.8870     0.1580     0.9260 ha         1 BYH       0.136000
     29 HAH         -3.8130    -1.4660    -2.6860 ha         1 BYH       0.146000
     30 HAI          5.6050    -1.6640    -1.5120 ha         1 BYH       0.146000
     31 HAJ          1.9410    -2.0640     1.8790 ha         1 BYH       0.147000
     32 HAK         -0.0640     1.2160    -0.2790 h1         1 BYH       0.100200
     33 HAKA        -0.1430    -0.4640     0.2890 h1         1 BYH       0.100200
     34 HNAM        -4.3240     0.9590     2.0430 hn         1 BYH       0.314700
     35 SAB          2.5610     2.9150    -0.5600 s          1 BYH      -0.617400
     36 CAL          1.2480     0.7910     1.3810 c3         1 BYH       0.116000
     37 HAC         -7.7730    -0.9720    -1.0960 ha         1 BYH       0.131000
     38 HAL          1.3450     1.8300     1.6960 h1         1 BYH       0.083700
     39 HALA         1.2790     0.1660     2.2730 h1         1 BYH       0.083700
@<TRIPOS>BOND
     1     1    20 1   
     2     1    22 1   
     3     1    23 1   
     4     1    24 1   
     5     2     3 ar  
     6     2     6 ar  
     7     2    37 1   
     8     3     7 ar  
     9     3    25 1   
    10     4     5 ar  
    11     4     8 ar  
    12     4    26 1   
    13     5     9 ar  
    14     5    27 1   
    15     6    16 ar  
    16     6    28 1   
    17     7    17 ar  
    18     7    29 1   
    19     8    18 ar  
    20     8    30 1   
    21     9    19 ar  
    22     9    31 1   
    23    10    13 1   
    24    10    32 1   
    25    10    33 1   
    26    10    36 1   
    27    11    14 1   
    28    11    16 1   
    29    11    34 1   
    30    12    14 2   
    31    12    17 1   
    32    13    14 1   
    33    15    20 1   
    34    15    21 1   
    35    15    35 2   
    36    16    17 ar  
    37    18    19 ar  
    38    18    20 1   
    39    19    21 1   
    40    21    36 1   
    41    36    38 1   
    42    36    39 1   
@<TRIPOS>SUBSTRUCTURE
     1 BYH         1 TEMP              0 ****  ****    0 ROOT
