@<TRIPOS>MOLECULE
BYI
  126   132     1     0     0
SMALL
abcg2


@<TRIPOS>ATOM
      1 C10        131.5370   139.8850   179.6880 ca         1 BYI      -0.156000
      2 C13        133.3470   141.3780   178.2030 ca         1 BYI      -0.059250
      3 C15        134.0100   142.6490   180.3090 c          1 BYI       0.606700
      4 C20        133.8220   146.7840   179.6840 cy         1 BYI      -0.005100
      5 C21        135.1360   146.0850   179.2270 cy         1 BYI      -0.070900
      6 C22        135.4530   145.8560   177.7760 ca         1 BYI       0.037700
      7 C24        135.3900   146.6470   175.4860 ca         1 BYI       0.124600
      8 C26        136.5540   144.6070   176.0350 ca         1 BYI      -0.086500
      9 C01        127.6360   136.3230   175.6790 c3         1 BYI      -0.109267
     10 C03        126.6210   138.0320   177.1880 c3         1 BYI      -0.109267
     11 C04        127.7270   135.9720   178.1440 c3         1 BYI      -0.109267
     12 C06        129.5420   138.3880   177.9570 c          1 BYI       0.652100
     13 C09        131.5930   139.7180   178.3030 ca         1 BYI      -0.037000
     14 C11        132.3660   140.8060   180.3040 ca         1 BYI      -0.059250
     15 C12        133.2580   141.5880   179.5780 ca         1 BYI      -0.139100
     16 C14        132.5320   140.4550   177.5760 ca         1 BYI      -0.156000
     17 C18        134.8840   144.9070   180.2170 cy         1 BYI      -0.005100
     18 C19        133.7920   145.7960   180.8940 cy         1 BYI      -0.070900
     19 C23        135.0560   146.7990   176.8260 ca         1 BYI      -0.193500
     20 C25        136.1480   145.5380   175.1050 ca         1 BYI       0.012600
     21 C27        136.2140   144.7630   177.3730 ca         1 BYI      -0.121500
     22 C31        136.1920   144.9550   171.5490 cc         1 BYI      -0.263100
     23 C32        137.4160   145.3650   171.0910 cd         1 BYI      -0.071500
     24 C33        137.5530   145.1880   169.6970 cd         1 BYI      -0.150000
     25 C34        136.4340   144.6480   169.1290 cc         1 BYI      -0.273500
     26 C44        130.4360   146.6770   178.0530 ca         1 BYI      -0.139100
     27 C45        130.6700   146.2540   176.7470 ca         1 BYI      -0.059250
     28 C46        129.6360   145.7540   175.9730 ca         1 BYI      -0.156000
     29 C47        128.3420   145.6700   176.4840 ca         1 BYI      -0.037000
     30 C48        128.0900   146.1600   177.7650 ca         1 BYI      -0.156000
     31 C49        129.1300   146.6480   178.5350 ca         1 BYI      -0.059250
     32 C51        126.3650   144.2330   176.0020 c          1 BYI       0.652100
     33 C54        125.4330   143.0490   177.9290 c3         1 BYI       0.225000
     34 C55        125.5920   141.6230   177.4230 c3         1 BYI      -0.109267
     35 C56        124.0120   143.5690   177.7520 c3         1 BYI      -0.109267
     36 C57        125.8290   143.1290   179.3970 c3         1 BYI      -0.109267
     37 C58        132.4840   145.2220   181.3490 ca         1 BYI       0.037700
     38 C59        131.6270   144.5000   180.5080 ca         1 BYI      -0.193500
     39 C60        130.3970   144.0340   180.9530 ca         1 BYI       0.124600
     40 C61        130.0180   144.2880   182.2720 ca         1 BYI       0.012600
     41 C62        130.8490   144.9860   183.1210 ca         1 BYI      -0.086500
     42 C63        132.0770   145.4450   182.6610 ca         1 BYI      -0.121500
     43 C67        126.4870   143.7960   182.7900 cc         1 BYI      -0.263100
     44 C68        126.3100   142.4860   183.1480 cd         1 BYI      -0.071500
     45 C69        124.9470   142.1590   183.3270 cd         1 BYI      -0.150000
     46 C70        124.1240   143.2270   183.1030 cc         1 BYI      -0.273500
     47 C74        136.1680   144.5910   181.0380 c          1 BYI       0.744000
     48 N08        130.7810   138.8390   177.5930 ns         1 BYI      -0.143000
     49 N17        134.3560   143.7290   179.5850 ns         1 BYI      -0.452900
     50 N50        127.3350   145.1400   175.6680 ns         1 BYI      -0.143000
     51 O05        129.0380   137.6760   176.9570 os         1 BYI      -0.466100
     52 O07        129.0080   138.6130   179.0170 o          1 BYI      -0.549000
     53 O16        134.2270   142.5590   181.5090 o          1 BYI      -0.574600
     54 O28        136.5470   145.4160   173.7890 os         1 BYI      -0.323200
     55 O30        134.5400   144.6020   173.1900 o          1 BYI      -0.470000
     56 O36        135.0450   147.4980   174.5080 os         1 BYI      -0.355600
     57 O43        131.2630   147.8270   179.9530 o          1 BYI      -0.574600
     58 O52        125.6000   143.7880   175.1750 o          1 BYI      -0.549000
     59 O53        126.4000   143.9270   177.2860 os         1 BYI      -0.466100
     60 O64        128.8060   143.7930   182.7190 os         1 BYI      -0.323200
     61 O66        127.7280   145.6250   181.9860 o          1 BYI      -0.470000
     62 O72        129.5150   143.3460   180.2070 os         1 BYI      -0.355600
     63 O75        136.9450   143.7610   180.5310 o          1 BYI      -0.714000
     64 O76        136.3510   145.2560   182.0720 o          1 BYI      -0.714000
     65 S35        135.2060   144.3540   170.2740 ss         1 BYI       0.281500
     66 S71        124.9880   144.6300   182.6730 ss         1 BYI       0.281500
     67 H1         130.8500   139.3130   180.2910 ha         1 BYI       0.114500
     68 H2         134.0550   141.9290   177.5950 ha         1 BYI       0.137750
     69 H3         135.9620   146.6670   179.6470 hc         1 BYI       0.134200
     70 H4         137.1510   143.7620   175.7160 ha         1 BYI       0.107000
     71 H5         127.6710   137.0430   174.8610 hc         1 BYI       0.048422
     72 H6         128.4380   135.5980   175.5390 hc         1 BYI       0.048422
     73 H7         126.6880   135.7900   175.6150 hc         1 BYI       0.048422
     74 H8         126.6270   138.5210   178.1590 hc         1 BYI       0.048422
     75 H9         126.6770   138.7980   176.4120 hc         1 BYI       0.048422
     76 H10        125.6630   137.5230   177.0790 hc         1 BYI       0.048422
     77 H11        127.7250   136.4160   179.1370 hc         1 BYI       0.048422
     78 H12        126.8240   135.3680   178.0480 hc         1 BYI       0.048422
     79 H13        128.5820   135.3000   178.0610 hc         1 BYI       0.048422
     80 H14        132.2940   140.9350   181.3750 ha         1 BYI       0.137750
     81 H15        132.6100   140.3180   176.5040 ha         1 BYI       0.114500
     82 H16        134.2590   146.3020   181.7350 hc         1 BYI       0.134200
     83 H17        134.5010   147.6680   177.1570 ha         1 BYI       0.146500
     84 H18        136.5620   144.0440   178.1030 ha         1 BYI       0.156500
     85 H19        138.1880   145.7770   171.7250 ha         1 BYI       0.155500
     86 H20        138.4400   145.4470   169.1370 ha         1 BYI       0.125500
     87 H21        136.2730   144.4110   168.0890 h4         1 BYI       0.137500
     88 H22        134.0470   149.1430   173.9130 h1         1 BYI       0.040867
     89 H23        133.2840   148.3040   175.2780 h1         1 BYI       0.040867
     90 H24        134.7430   149.2860   175.5380 h1         1 BYI       0.040867
     91 H25        131.6600   146.3020   176.3100 ha         1 BYI       0.137750
     92 H26        129.8400   145.4080   174.9670 ha         1 BYI       0.114500
     93 H27        127.0890   146.1610   178.1700 ha         1 BYI       0.114500
     94 H28        128.9220   146.9940   179.5380 ha         1 BYI       0.137750
     95 H29        126.6280   141.2920   177.5140 hc         1 BYI       0.048422
     96 H30        124.9810   140.9570   178.0330 hc         1 BYI       0.048422
     97 H31        125.2780   141.5080   176.3880 hc         1 BYI       0.048422
     98 H32        123.9360   144.6140   178.0560 hc         1 BYI       0.048422
     99 H33        123.6540   143.4750   176.7300 hc         1 BYI       0.048422
    100 H34        123.3450   142.9920   178.3930 hc         1 BYI       0.048422
    101 H35        126.8300   142.7320   179.5680 hc         1 BYI       0.048422
    102 H36        125.8030   144.1580   179.7560 hc         1 BYI       0.048422
    103 H37        125.1340   142.5450   180.0000 hc         1 BYI       0.048422
    104 H38        131.9090   144.3020   179.4880 ha         1 BYI       0.146500
    105 H39        130.5380   145.1720   184.1410 ha         1 BYI       0.107000
    106 H40        132.7170   145.9990   183.3350 ha         1 BYI       0.156500
    107 H41        127.1200   141.7800   183.2680 ha         1 BYI       0.155500
    108 H42        124.5900   141.1790   183.6080 ha         1 BYI       0.125500
    109 H43        123.0470   143.2550   183.1770 h4         1 BYI       0.137500
    110 H44        128.9910   142.4890   178.4640 h1         1 BYI       0.040867
    111 H45        129.9190   143.9820   178.2620 h1         1 BYI       0.040867
    112 H46        130.7370   142.4830   178.7550 h1         1 BYI       0.040867
    113 H47        131.0560   138.6580   176.6380 hn         1 BYI       0.156500
    114 H48        134.0870   143.7720   178.6160 hn         1 BYI       0.286500
    115 H49        132.8480   145.9470   178.0030 hn         1 BYI       0.286500
    116 H50        127.4610   145.2500   174.6730 hn         1 BYI       0.156500
    117 C38        134.0580   148.2920   179.9890 c          1 BYI       0.744000
    118 O39        133.9870   149.0570   179.0080 o          1 BYI      -0.714000
    119 C02        127.7430   137.0140   177.0330 c3         1 BYI       0.225000
    120 C29        135.6500   144.9630   172.9020 c          1 BYI       0.631200
    121 C37        134.2380   148.6120   174.8420 c3         1 BYI       0.147900
    122 O40        134.3780   148.5900   181.1510 o          1 BYI      -0.714000
    123 N41        132.7370   146.6060   178.7570 ns         1 BYI      -0.452900
    124 C42        131.5120   147.1080   178.9960 c          1 BYI       0.606700
    125 C65        127.7090   144.5140   182.4490 c          1 BYI       0.631200
    126 C73        129.8230   143.0700   178.8540 c3         1 BYI       0.147900
@<TRIPOS>BOND
     1     1    13 ar  
     2     1    14 ar  
     3     1    67 1   
     4     2    15 ar  
     5     2    16 ar  
     6     2    68 1   
     7     3    15 1   
     8     3    49 1   
     9     3    53 2   
    10     4     5 1   
    11     4    18 1   
    12     4   117 1   
    13     4   123 1   
    14     5     6 1   
    15     5    17 1   
    16     5    69 1   
    17     6    19 ar  
    18     6    21 ar  
    19     7    19 ar  
    20     7    20 ar  
    21     7    56 1   
    22     8    20 ar  
    23     8    21 ar  
    24     8    70 1   
    25     9    71 1   
    26     9    72 1   
    27     9    73 1   
    28     9   119 1   
    29    10    74 1   
    30    10    75 1   
    31    10    76 1   
    32    10   119 1   
    33    11    77 1   
    34    11    78 1   
    35    11    79 1   
    36    11   119 1   
    37    12    48 1   
    38    12    51 1   
    39    12    52 2   
    40    13    16 ar  
    41    13    48 1   
    42    14    15 ar  
    43    14    80 1   
    44    16    81 1   
    45    17    18 1   
    46    17    47 1   
    47    17    49 1   
    48    18    37 1   
    49    18    82 1   
    50    19    83 1   
    51    20    54 1   
    52    21    84 1   
    53    22    23 2   
    54    22    65 1   
    55    22   120 1   
    56    23    24 1   
    57    23    85 1   
    58    24    25 2   
    59    24    86 1   
    60    25    65 1   
    61    25    87 1   
    62    26    27 ar  
    63    26    31 ar  
    64    26   124 1   
    65    27    28 ar  
    66    27    91 1   
    67    28    29 ar  
    68    28    92 1   
    69    29    30 ar  
    70    29    50 1   
    71    30    31 ar  
    72    30    93 1   
    73    31    94 1   
    74    32    50 1   
    75    32    58 2   
    76    32    59 1   
    77    33    34 1   
    78    33    35 1   
    79    33    36 1   
    80    33    59 1   
    81    34    95 1   
    82    34    96 1   
    83    34    97 1   
    84    35    98 1   
    85    35    99 1   
    86    35   100 1   
    87    36   101 1   
    88    36   102 1   
    89    36   103 1   
    90    37    38 ar  
    91    37    42 ar  
    92    38    39 ar  
    93    38   104 1   
    94    39    40 ar  
    95    39    62 1   
    96    40    41 ar  
    97    40    60 1   
    98    41    42 ar  
    99    41   105 1   
   100    42   106 1   
   101    43    44 2   
   102    43    66 1   
   103    43   125 1   
   104    44    45 1   
   105    44   107 1   
   106    45    46 2   
   107    45   108 1   
   108    46    66 1   
   109    46   109 1   
   110    47    63 1   
   111    47    64 1   
   112    48   113 1   
   113    49   114 1   
   114    50   116 1   
   115    51   119 1   
   116    54   120 1   
   117    55   120 2   
   118    56   121 1   
   119    57   124 2   
   120    60   125 1   
   121    61   125 2   
   122    62   126 1   
   123    88   121 1   
   124    89   121 1   
   125    90   121 1   
   126   110   126 1   
   127   111   126 1   
   128   112   126 1   
   129   115   123 1   
   130   117   118 1   
   131   117   122 1   
   132   123   124 1   
@<TRIPOS>SUBSTRUCTURE
     1 BYI         1 TEMP              0 ****  ****    0 ROOT
