@<TRIPOS>MOLECULE
BYI
  126   132     1     0     0
SMALL
No Charge or Current Charge


@<TRIPOS>ATOM
      1 C10        131.5990   139.6950   178.8650 ca         1 BYI      -0.156000
      2 C13        132.5720   142.0840   177.7600 ca         1 BYI      -0.059250
      3 C15        133.8240   142.6210   179.9380 c          1 BYI       0.606700
      4 C20        133.7640   146.8180   179.5200 cy         1 BYI      -0.005100
      5 C21        135.2500   146.2530   179.3110 cy         1 BYI      -0.070900
      6 C22        135.6890   146.0040   177.8570 ca         1 BYI       0.037700
      7 C24        135.7060   146.6720   175.4920 ca         1 BYI       0.124600
      8 C26        136.8400   144.6290   176.1940 ca         1 BYI      -0.086500
      9 C01        127.2060   136.8510   174.5460 c3         1 BYI      -0.109267
     10 C03        126.4500   137.4700   176.8830 c3         1 BYI      -0.109267
     11 C04        128.2020   135.6010   176.5130 c3         1 BYI      -0.109267
     12 C06        129.3510   138.3480   177.1540 c          1 BYI       0.652100
     13 C09        131.1750   140.0890   177.5810 ca         1 BYI      -0.037000
     14 C11        132.4890   140.4990   179.5990 ca         1 BYI      -0.059250
     15 C12        132.9710   141.7170   179.0700 ca         1 BYI      -0.139100
     16 C14        131.6880   141.2740   177.0300 ca         1 BYI      -0.156000
     17 C18        134.6970   144.9770   180.1110 cy         1 BYI      -0.005100
     18 C19        133.8140   146.0470   180.9230 cy         1 BYI      -0.070900
     19 C23        135.3310   146.9090   176.8340 ca         1 BYI      -0.193500
     20 C25        136.4540   145.5160   175.1780 ca         1 BYI       0.012600
     21 C27        136.4590   144.8720   177.5230 ca         1 BYI      -0.121500
     22 C31        136.5550   144.8190   171.5510 cc         1 BYI      -0.263100
     23 C32        137.8830   145.0190   171.2550 cd         1 BYI      -0.071500
     24 C33        138.1720   144.8450   169.8750 cd         1 BYI      -0.150000
     25 C34        137.0720   144.5150   169.1220 cc         1 BYI      -0.273500
     26 C44        130.3970   146.3030   177.8300 ca         1 BYI      -0.139100
     27 C45        130.7640   145.4760   176.7400 ca         1 BYI      -0.059250
     28 C46        129.7980   144.6900   176.0870 ca         1 BYI      -0.156000
     29 C47        128.4610   144.6970   176.5170 ca         1 BYI      -0.037000
     30 C48        128.0800   145.5650   177.5590 ca         1 BYI      -0.156000
     31 C49        129.0380   146.3600   178.2080 ca         1 BYI      -0.059250
     32 C51        126.4490   143.1280   176.3720 c          1 BYI       0.652100
     33 C54        125.3530   142.5520   178.5250 c3         1 BYI       0.225000
     34 C55        125.4760   141.0160   178.3530 c3         1 BYI      -0.109267
     35 C56        123.9600   143.1020   178.1230 c3         1 BYI      -0.109267
     36 C57        125.6700   142.9500   179.9840 c3         1 BYI      -0.109267
     37 C58        132.4600   145.6220   181.5370 ca         1 BYI       0.037700
     38 C59        131.5200   144.8130   180.8520 ca         1 BYI      -0.193500
     39 C60        130.2630   144.5130   181.4220 ca         1 BYI       0.124600
     40 C61        129.9390   145.0350   182.6920 ca         1 BYI       0.012600
     41 C62        130.8720   145.8130   183.3930 ca         1 BYI      -0.086500
     42 C63        132.1190   146.1070   182.8170 ca         1 BYI      -0.121500
     43 C67        126.3270   144.6670   183.3540 cc         1 BYI      -0.263100
     44 C68        126.3120   143.7000   184.3310 cd         1 BYI      -0.071500
     45 C69        124.9960   143.3170   184.7060 cd         1 BYI      -0.150000
     46 C70        124.0130   143.9870   184.0200 cc         1 BYI      -0.273500
     47 C74        135.9370   144.8470   181.1700 c          1 BYI       0.744000
     48 N08        130.2460   139.3430   176.8090 ns         1 BYI      -0.143000
     49 N17        134.1460   143.8440   179.3860 ns         1 BYI      -0.452900
     50 N50        127.5340   143.8350   175.8750 ns         1 BYI      -0.143000
     51 O05        128.6890   137.9540   176.0160 os         1 BYI      -0.466100
     52 O07        129.1700   137.9090   178.2820 o          1 BYI      -0.549000
     53 O16        134.1620   142.3090   181.0710 o          1 BYI      -0.574600
     54 O28        136.8330   145.2460   173.8830 os         1 BYI      -0.323200
     55 O30        134.7530   144.7300   173.0930 o          1 BYI      -0.470000
     56 O36        135.3700   147.5470   174.4730 os         1 BYI      -0.355600
     57 O43        131.1150   147.9530   179.4170 o          1 BYI      -0.574600
     58 O52        125.6910   142.4940   175.6520 o          1 BYI      -0.549000
     59 O53        126.3780   143.2100   177.7450 os         1 BYI      -0.466100
     60 O64        128.7110   144.7820   183.2620 os         1 BYI      -0.323200
     61 O66        127.4820   146.1080   181.8650 o          1 BYI      -0.470000
     62 O72        129.3260   143.7250   180.7730 os         1 BYI      -0.355600
     63 O75        137.0980   144.7460   180.7890 o          1 BYI      -0.714000
     64 O76        135.7790   144.7540   182.3820 o          1 BYI      -0.714000
     65 S35        135.6220   144.4100   170.1200 ss         1 BYI       0.281500
     66 S71        124.7040   145.1360   182.8750 ss         1 BYI       0.281500
     67 H1         131.2450   138.7720   179.3140 ha         1 BYI       0.114500
     68 H2         132.9180   143.0020   177.2950 ha         1 BYI       0.137750
     69 H3         136.0330   146.8210   179.8350 hc         1 BYI       0.134200
     70 H4         137.4270   143.7470   175.9500 ha         1 BYI       0.107000
     71 H5         126.8480   137.8170   174.1720 hc         1 BYI       0.048422
     72 H6         128.0470   136.5320   173.9180 hc         1 BYI       0.048422
     73 H7         126.3980   136.1190   174.4280 hc         1 BYI       0.048422
     74 H8         126.6800   137.4590   177.9530 hc         1 BYI       0.048422
     75 H9         126.1770   138.4930   176.5970 hc         1 BYI       0.048422
     76 H10        125.5700   136.8330   176.7340 hc         1 BYI       0.048422
     77 H11        128.3800   135.5940   177.5930 hc         1 BYI       0.048422
     78 H12        127.4910   134.7940   176.2980 hc         1 BYI       0.048422
     79 H13        129.1440   135.3660   176.0040 hc         1 BYI       0.048422
     80 H14        132.7790   140.1840   180.6000 ha         1 BYI       0.137750
     81 H15        131.3800   141.5870   176.0340 ha         1 BYI       0.114500
     82 H16        134.3900   146.5810   181.6900 hc         1 BYI       0.134200
     83 H17        134.7610   147.7930   177.0940 ha         1 BYI       0.146500
     84 H18        136.7630   144.1670   178.2920 ha         1 BYI       0.156500
     85 H19        138.6370   145.2830   171.9930 ha         1 BYI       0.155500
     86 H20        139.1680   144.9620   169.4570 ha         1 BYI       0.125500
     87 H21        137.0010   144.3260   168.0580 h4         1 BYI       0.137500
     88 H22        134.4260   149.2660   173.7530 h1         1 BYI       0.040867
     89 H23        133.5960   148.4690   175.1060 h1         1 BYI       0.040867
     90 H24        135.0860   149.4080   175.3950 h1         1 BYI       0.040867
     91 H25        131.7930   145.4220   176.3930 ha         1 BYI       0.137750
     92 H26        130.1020   144.0440   175.2660 ha         1 BYI       0.114500
     93 H27        127.0450   145.6180   177.8860 ha         1 BYI       0.114500
     94 H28        128.7280   146.9860   179.0420 ha         1 BYI       0.137750
     95 H29        126.5170   140.6930   178.4720 hc         1 BYI       0.048422
     96 H30        124.8730   140.4980   179.1080 hc         1 BYI       0.048422
     97 H31        125.1200   140.6860   177.3720 hc         1 BYI       0.048422
     98 H32        123.9680   144.1980   178.0960 hc         1 BYI       0.048422
     99 H33        123.6400   142.7330   177.1430 hc         1 BYI       0.048422
    100 H34        123.2020   142.7870   178.8500 hc         1 BYI       0.048422
    101 H35        126.6430   142.5560   180.2970 hc         1 BYI       0.048422
    102 H36        125.6930   144.0410   180.0920 hc         1 BYI       0.048422
    103 H37        124.9120   142.5550   180.6710 hc         1 BYI       0.048422
    104 H38        131.7500   144.4510   179.8620 ha         1 BYI       0.146500
    105 H39        130.6210   146.2060   184.3760 ha         1 BYI       0.107000
    106 H40        132.8180   146.7340   183.3660 ha         1 BYI       0.156500
    107 H41        127.2070   143.2650   184.7700 ha         1 BYI       0.155500
    108 H42        124.7890   142.5630   185.4600 ha         1 BYI       0.125500
    109 H43        122.9380   143.8950   184.0990 h4         1 BYI       0.137500
    110 H44        128.7340   142.4520   179.2220 h1         1 BYI       0.040867
    111 H45        129.9590   143.6490   178.7720 h1         1 BYI       0.040867
    112 H46        130.4060   142.2450   179.7720 h1         1 BYI       0.040867
    113 H47        130.2230   139.5920   175.8290 hn         1 BYI       0.156500
    114 H48        133.8930   143.9660   178.4170 hn         1 BYI       0.286500
    115 H49        132.8670   145.8850   177.8280 hn         1 BYI       0.286500
    116 H50        127.6830   143.7230   174.8820 hn         1 BYI       0.156500
    117 C38        134.1850   148.3080   180.0490 c          1 BYI       0.744000
    118 O39        134.9040   149.0430   179.3820 o          1 BYI      -0.714000
    119 C02        127.6370   136.9610   176.0260 c3         1 BYI       0.225000
    120 C29        135.9440   144.9280   172.8880 c          1 BYI       0.631200
    121 C37        134.5810   148.7290   174.6970 c3         1 BYI       0.147900
    122 O40        133.7460   148.8090   181.0790 o          1 BYI      -0.714000
    123 N41        132.7160   146.5840   178.5390 ns         1 BYI      -0.452900
    124 C42        131.4200   147.0450   178.6570 c          1 BYI       0.606700
    125 C65        127.5320   145.2560   182.7430 c          1 BYI       0.631200
    126 C73        129.6240   142.9860   179.5760 c3         1 BYI       0.147900
@<TRIPOS>BOND
     1     1    13 ar  
     2     1    14 ar  
     3     1    67 1   
     4     2    15 ar  
     5     2    16 ar  
     6     2    68 1   
     7     3    15 1   
     8     3    49 1   
     9     3    53 2   
    10     4     5 1   
    11     4    18 1   
    12     4   117 1   
    13     4   123 1   
    14     5     6 1   
    15     5    17 1   
    16     5    69 1   
    17     6    19 ar  
    18     6    21 ar  
    19     7    19 ar  
    20     7    20 ar  
    21     7    56 1   
    22     8    20 ar  
    23     8    21 ar  
    24     8    70 1   
    25     9    71 1   
    26     9    72 1   
    27     9    73 1   
    28     9   119 1   
    29    10    74 1   
    30    10    75 1   
    31    10    76 1   
    32    10   119 1   
    33    11    77 1   
    34    11    78 1   
    35    11    79 1   
    36    11   119 1   
    37    12    48 1   
    38    12    51 1   
    39    12    52 2   
    40    13    16 ar  
    41    13    48 1   
    42    14    15 ar  
    43    14    80 1   
    44    16    81 1   
    45    17    18 1   
    46    17    47 1   
    47    17    49 1   
    48    18    37 1   
    49    18    82 1   
    50    19    83 1   
    51    20    54 1   
    52    21    84 1   
    53    22    23 2   
    54    22    65 1   
    55    22   120 1   
    56    23    24 1   
    57    23    85 1   
    58    24    25 2   
    59    24    86 1   
    60    25    65 1   
    61    25    87 1   
    62    26    27 ar  
    63    26    31 ar  
    64    26   124 1   
    65    27    28 ar  
    66    27    91 1   
    67    28    29 ar  
    68    28    92 1   
    69    29    30 ar  
    70    29    50 1   
    71    30    31 ar  
    72    30    93 1   
    73    31    94 1   
    74    32    50 1   
    75    32    58 2   
    76    32    59 1   
    77    33    34 1   
    78    33    35 1   
    79    33    36 1   
    80    33    59 1   
    81    34    95 1   
    82    34    96 1   
    83    34    97 1   
    84    35    98 1   
    85    35    99 1   
    86    35   100 1   
    87    36   101 1   
    88    36   102 1   
    89    36   103 1   
    90    37    38 ar  
    91    37    42 ar  
    92    38    39 ar  
    93    38   104 1   
    94    39    40 ar  
    95    39    62 1   
    96    40    41 ar  
    97    40    60 1   
    98    41    42 ar  
    99    41   105 1   
   100    42   106 1   
   101    43    44 2   
   102    43    66 1   
   103    43   125 1   
   104    44    45 1   
   105    44   107 1   
   106    45    46 2   
   107    45   108 1   
   108    46    66 1   
   109    46   109 1   
   110    47    63 1   
   111    47    64 1   
   112    48   113 1   
   113    49   114 1   
   114    50   116 1   
   115    51   119 1   
   116    54   120 1   
   117    55   120 2   
   118    56   121 1   
   119    57   124 2   
   120    60   125 1   
   121    61   125 2   
   122    62   126 1   
   123    88   121 1   
   124    89   121 1   
   125    90   121 1   
   126   110   126 1   
   127   111   126 1   
   128   112   126 1   
   129   115   123 1   
   130   117   118 1   
   131   117   122 1   
   132   123   124 1   
@<TRIPOS>SUBSTRUCTURE
     1 BYI         1 TEMP              0 ****  ****    0 ROOT
