@<TRIPOS>MOLECULE
BYJ
   46    47     1     0     0
SMALL
bcc


@<TRIPOS>ATOM
      1 N02          4.0700    -2.9100    -1.2770 nv         1 BYJ      -0.945500
      2 C02          4.0740    -1.8040    -0.4760 ca         1 BYJ       0.666200
      3 C03          5.2810    -1.2880     0.0270 ca         1 BYJ      -0.316300
      4 C04          5.2530    -0.1400     0.7910 ca         1 BYJ       0.000700
      5 C05          4.0110     0.4590     1.0340 ca         1 BYJ      -0.299300
      6 C07          6.5100     0.4620     1.3390 c3         1 BYJ      -0.053800
      7 N01          2.9010    -1.2290    -0.2340 nb         1 BYJ      -0.752000
      8 C06          2.8710    -0.1190     0.5060 ca         1 BYJ       0.463600
      9 C08          1.5160     0.4930     0.7200 c3         1 BYJ      -0.124700
     10 C09          0.9590     1.1130    -0.5690 c3         1 BYJ      -0.028100
     11 C11         -0.4140     1.6870    -0.3610 ca         1 BYJ      -0.077300
     12 C16         -1.5500     0.9680    -0.7190 ca         1 BYJ      -0.119000
     13 C12         -0.5770     2.9380     0.2330 ca         1 BYJ      -0.129000
     14 C13         -1.8460     3.4460     0.4630 ca         1 BYJ      -0.127000
     15 C14         -2.9690     2.7120     0.1020 ca         1 BYJ      -0.128000
     16 C15         -2.8340     1.4630    -0.4960 ca         1 BYJ      -0.077300
     17 C17         -4.0420     0.6440    -0.8610 c3         1 BYJ      -0.030100
     18 C18         -4.2760    -0.5130     0.1110 c3         1 BYJ      -0.078400
     19 C19         -5.5160    -1.3170    -0.2450 c3         1 BYJ       0.154800
     20 N20         -5.7200    -2.4170     0.6770 n7         1 BYJ      -0.801200
     21 C21         -6.9050    -3.1900     0.3670 c3         1 BYJ       0.144100
     22 H1           4.8700    -3.5190    -1.2330 hn         1 BYJ       0.412800
     23 H2           3.1910    -3.3920    -1.3640 hn         1 BYJ       0.412800
     24 H3           6.2170    -1.7920    -0.1820 ha         1 BYJ       0.136000
     25 H4           3.9410     1.3570     1.6370 ha         1 BYJ       0.139000
     26 H5           6.7680     1.3710     0.7920 hc         1 BYJ       0.046367
     27 H6           6.3900     0.7430     2.3850 hc         1 BYJ       0.046367
     28 H7           7.3540    -0.2220     1.2620 hc         1 BYJ       0.046367
     29 H8           0.8250    -0.2780     1.0730 hc         1 BYJ       0.055700
     30 H9           1.5700     1.2570     1.4980 hc         1 BYJ       0.055700
     31 H10          1.6410     1.8960    -0.9110 hc         1 BYJ       0.056200
     32 H11          0.9330     0.3490    -1.3490 hc         1 BYJ       0.056200
     33 H12         -1.4320    -0.0050    -1.1880 ha         1 BYJ       0.133000
     34 H13          0.2970     3.5160     0.5130 ha         1 BYJ       0.128000
     35 H14         -1.9630     4.4200     0.9220 ha         1 BYJ       0.128000
     36 H15         -3.9580     3.1150     0.2840 ha         1 BYJ       0.127000
     37 H16         -4.9270     1.2860    -0.8770 hc         1 BYJ       0.045200
     38 H17         -3.9290     0.2440    -1.8730 hc         1 BYJ       0.045200
     39 H18         -3.4050    -1.1740     0.1160 hc         1 BYJ       0.049700
     40 H19         -4.3740    -0.1150     1.1260 hc         1 BYJ       0.049700
     41 H20         -6.3870    -0.6420    -0.2950 h1         1 BYJ       0.026700
     42 H21         -5.4000    -1.7330    -1.2520 h1         1 BYJ       0.026700
     43 H22         -5.8130    -2.0410     1.6130 hn         1 BYJ       0.348800
     44 H24         -6.7820    -3.6900    -0.5960 h1         1 BYJ       0.028367
     45 H25         -7.0520    -3.9640     1.1210 h1         1 BYJ       0.028367
     46 H26         -7.8290    -2.5970     0.3090 h1         1 BYJ       0.028367
@<TRIPOS>BOND
     1     1     2 1   
     2     1    22 1   
     3     1    23 1   
     4     2     3 ar  
     5     2     7 ar  
     6     3     4 ar  
     7     3    24 1   
     8     4     5 ar  
     9     4     6 1   
    10     5     8 ar  
    11     5    25 1   
    12     6    26 1   
    13     6    27 1   
    14     6    28 1   
    15     7     8 ar  
    16     8     9 1   
    17     9    10 1   
    18     9    29 1   
    19     9    30 1   
    20    10    11 1   
    21    10    31 1   
    22    10    32 1   
    23    11    12 ar  
    24    11    13 ar  
    25    12    16 ar  
    26    12    33 1   
    27    13    14 ar  
    28    13    34 1   
    29    14    15 ar  
    30    14    35 1   
    31    15    16 ar  
    32    15    36 1   
    33    16    17 1   
    34    17    18 1   
    35    17    37 1   
    36    17    38 1   
    37    18    19 1   
    38    18    39 1   
    39    18    40 1   
    40    19    20 1   
    41    19    41 1   
    42    19    42 1   
    43    20    21 1   
    44    20    43 1   
    45    21    44 1   
    46    21    45 1   
    47    21    46 1   
@<TRIPOS>SUBSTRUCTURE
     1 BYJ         1 TEMP              0 ****  ****    0 ROOT
