@<TRIPOS>MOLECULE
BYJ
   46    47     1     0     0
SMALL
No Charge or Current Charge


@<TRIPOS>ATOM
      1 N02          4.2870    -3.1710    -0.9290 nv         1 BYJ      -1.055900
      2 C02          4.2890    -1.9640    -0.3590 ca         1 BYJ       0.600900
      3 C03          5.4540    -1.2720    -0.0210 ca         1 BYJ      -0.233000
      4 C04          5.3300    -0.0120     0.5830 ca         1 BYJ       0.000700
      5 C05          4.0300     0.4700     0.8060 ca         1 BYJ      -0.216000
      6 C07          6.5520     0.8030     0.9720 c3         1 BYJ      -0.053800
      7 N01          3.0550    -1.5300    -0.1520 nb         1 BYJ      -0.752000
      8 C06          2.9240    -0.3160     0.4280 ca         1 BYJ       0.398300
      9 C08          1.5050     0.1840     0.6540 c3         1 BYJ      -0.124700
     10 C09          1.0490     1.1790    -0.4350 c3         1 BYJ      -0.028100
     11 C11         -0.3620     1.6940    -0.1860 ca         1 BYJ      -0.077300
     12 C16         -1.4750     0.9610    -0.6420 ca         1 BYJ      -0.101000
     13 C12         -0.5660     2.9010     0.5110 ca         1 BYJ      -0.111000
     14 C13         -1.8690     3.3690     0.7460 ca         1 BYJ      -0.109000
     15 C14         -2.9750     2.6350     0.2860 ca         1 BYJ      -0.110000
     16 C15         -2.7840     1.4270    -0.4110 ca         1 BYJ      -0.077300
     17 C17         -3.9810     0.6250    -0.9030 c3         1 BYJ      -0.030100
     18 C18         -4.4190    -0.4500     0.1150 c3         1 BYJ      -0.078400
     19 C19         -5.6310    -1.2720    -0.3660 c3         1 BYJ       0.154800
     20 N20         -5.9980    -2.2820     0.6440 n7         1 BYJ      -0.856400
     21 C21         -7.1420    -3.1410     0.2820 c3         1 BYJ       0.144100
     22 H1           5.1200    -3.7380    -0.8210 hn         1 BYJ       0.468000
     23 H2           3.3990    -3.6560    -0.9070 hn         1 BYJ       0.468000
     24 H3           6.4300    -1.7020    -0.2260 ha         1 BYJ       0.118000
     25 H4           3.8730     1.4410     1.2660 ha         1 BYJ       0.121000
     26 H5           6.8470     1.4750     0.1580 hc         1 BYJ       0.046367
     27 H6           6.3550     1.4160     1.8590 hc         1 BYJ       0.046367
     28 H7           7.4070     0.1560     1.2000 hc         1 BYJ       0.046367
     29 H8           0.8020    -0.6580     0.6870 hc         1 BYJ       0.055700
     30 H9           1.4410     0.6730     1.6330 hc         1 BYJ       0.055700
     31 H10          1.7560     2.0180    -0.4760 hc         1 BYJ       0.056200
     32 H11          1.1030     0.6880    -1.4150 hc         1 BYJ       0.056200
     33 H12         -1.3220     0.0250    -1.1750 ha         1 BYJ       0.115000
     34 H13          0.2850     3.4740     0.8730 ha         1 BYJ       0.110000
     35 H14         -2.0220     4.3010     1.2850 ha         1 BYJ       0.110000
     36 H15         -3.9810     3.0040     0.4750 ha         1 BYJ       0.109000
     37 H16         -4.8260     1.2940    -1.1060 hc         1 BYJ       0.045200
     38 H17         -3.7400     0.1400    -1.8580 hc         1 BYJ       0.045200
     39 H18         -3.5760    -1.1260     0.3060 hc         1 BYJ       0.049700
     40 H19         -4.6630     0.0380     1.0660 hc         1 BYJ       0.049700
     41 H20         -6.4750    -0.5930    -0.5500 h1         1 BYJ       0.026700
     42 H21         -5.3790    -1.7600    -1.3180 h1         1 BYJ       0.026700
     43 H22         -6.2310    -1.7910     1.5170 hn         1 BYJ       0.404000
     44 H24         -6.9370    -3.6970    -0.6430 h1         1 BYJ       0.028367
     45 H25         -7.3450    -3.8690     1.0790 h1         1 BYJ       0.028367
     46 H26         -8.0490    -2.5420     0.1290 h1         1 BYJ       0.028367
@<TRIPOS>BOND
     1     1     2 1   
     2     1    22 1   
     3     1    23 1   
     4     2     3 ar  
     5     2     7 ar  
     6     3     4 ar  
     7     3    24 1   
     8     4     5 ar  
     9     4     6 1   
    10     5     8 ar  
    11     5    25 1   
    12     6    26 1   
    13     6    27 1   
    14     6    28 1   
    15     7     8 ar  
    16     8     9 1   
    17     9    10 1   
    18     9    29 1   
    19     9    30 1   
    20    10    11 1   
    21    10    31 1   
    22    10    32 1   
    23    11    12 ar  
    24    11    13 ar  
    25    12    16 ar  
    26    12    33 1   
    27    13    14 ar  
    28    13    34 1   
    29    14    15 ar  
    30    14    35 1   
    31    15    16 ar  
    32    15    36 1   
    33    16    17 1   
    34    17    18 1   
    35    17    37 1   
    36    17    38 1   
    37    18    19 1   
    38    18    39 1   
    39    18    40 1   
    40    19    20 1   
    41    19    41 1   
    42    19    42 1   
    43    20    21 1   
    44    20    43 1   
    45    21    44 1   
    46    21    45 1   
    47    21    46 1   
@<TRIPOS>SUBSTRUCTURE
     1 BYJ         1 TEMP              0 ****  ****    0 ROOT
