@<TRIPOS>MOLECULE
BYK
   47    50     1     0     0
SMALL
No Charge or Current Charge


@<TRIPOS>ATOM
      1 O01         52.9700     4.6140    45.1990 o          1 BYK      -0.673000
      2 C02         52.3540     3.5590    45.2380 c          1 BYK       0.724000
      3 O03         52.7290     2.5660    44.6310 o          1 BYK      -0.673000
      4 C04         51.0130     3.5280    46.0160 c5         1 BYK      -0.087300
      5 C05         51.3230     3.5220    47.5530 c5         1 BYK       0.094600
      6 S06         51.5200     1.7390    48.0790 ss         1 BYK      -0.334600
      7 C07         50.4050     1.3230    46.7970 cc         1 BYK       0.272200
      8 C08         49.7370     0.1030    46.8050 cd         1 BYK      -0.221000
      9 N09         49.9110    -0.9250    47.9140 nx         1 BYK      -0.529000
     10 C10         51.3140    -1.5420    47.9450 c3         1 BYK       0.083900
     11 C11         49.3810    -0.4420    49.2690 c3         1 BYK       0.083900
     12 C12         48.8460    -0.2180    45.7080 cd         1 BYK      -0.003200
     13 C13         48.0960    -1.5360    45.6170 c3         1 BYK       0.007100
     14 C14         47.8020    -2.0050    44.1890 ca         1 BYK      -0.088300
     15 C15         46.4660    -1.9880    43.7370 ca         1 BYK      -0.093000
     16 C16         46.1430    -2.4010    42.4360 ca         1 BYK      -0.115000
     17 C17         47.1530    -2.8370    41.5670 ca         1 BYK      -0.079000
     18 C18         48.4920    -2.8600    41.9970 ca         1 BYK      -0.038000
     19 C19         49.4950    -3.2970    41.1110 ca         1 BYK      -0.095000
     20 C20         50.8380    -3.3240    41.5190 ca         1 BYK      -0.100000
     21 C21         51.1820    -2.9140    42.8160 ca         1 BYK      -0.086000
     22 C22         50.1870    -2.4770    43.7060 ca         1 BYK      -0.106000
     23 C23         48.8280    -2.4450    43.3100 ca         1 BYK      -0.022000
     24 C24         48.7260     0.7580    44.7290 cc         1 BYK      -0.269200
     25 C25         49.4120     2.0600    44.7300 c          1 BYK       0.571200
     26 O26         49.2720     2.8870    43.8380 o          1 BYK      -0.491000
     27 N27         50.2210     2.2820    45.8470 n          1 BYK      -0.205000
     28 H041        50.4460     4.4210    45.7260 h1         1 BYK       0.116700
     29 H052        52.2130     4.1100    47.8150 h1         1 BYK       0.095200
     30 H051        50.4750     3.9470    48.1080 h1         1 BYK       0.095200
     31 H102        51.3370    -2.3720    48.6550 hx         1 BYK       0.092700
     32 H101        51.5740    -1.9060    46.9480 hx         1 BYK       0.092700
     33 H103        52.0400    -0.7870    48.2520 hx         1 BYK       0.092700
     34 H112        49.3880    -1.2690    49.9830 hx         1 BYK       0.092700
     35 H113        50.0150     0.3620    49.6460 hx         1 BYK       0.092700
     36 H111        48.3610    -0.0700    49.1480 hx         1 BYK       0.092700
     37 H131        47.1610    -1.4400    46.1810 hc         1 BYK       0.039200
     38 H132        48.6500    -2.3340    46.1230 hc         1 BYK       0.039200
     39 H151        45.6700    -1.6490    44.3970 ha         1 BYK       0.107000
     40 H161        45.1090    -2.3820    42.1010 ha         1 BYK       0.118000
     41 H171        46.8940    -3.1550    40.5600 ha         1 BYK       0.119000
     42 H191        49.2360    -3.6160    40.1030 ha         1 BYK       0.116000
     43 H201        51.6100    -3.6620    40.8310 ha         1 BYK       0.120000
     44 H211        52.2230    -2.9330    43.1320 ha         1 BYK       0.122000
     45 H221        50.4920    -2.1650    44.7000 ha         1 BYK       0.107000
     46 H241        48.0880     0.6110    43.8670 ha         1 BYK       0.229000
     47 H091        49.2750    -1.7070    47.6450 hn         1 BYK       0.488000
@<TRIPOS>BOND
     1     1     2 1   
     2     2     3 1   
     3     2     4 1   
     4     4     5 1   
     5     4    27 1   
     6     4    28 1   
     7     5     6 1   
     8     5    29 1   
     9     5    30 1   
    10     6     7 1   
    11     7     8 2   
    12     7    27 1   
    13     8     9 1   
    14     8    12 1   
    15     9    10 1   
    16     9    11 1   
    17     9    47 1   
    18    10    31 1   
    19    10    32 1   
    20    10    33 1   
    21    11    34 1   
    22    11    35 1   
    23    11    36 1   
    24    12    13 1   
    25    12    24 2   
    26    13    14 1   
    27    13    37 1   
    28    13    38 1   
    29    14    15 ar  
    30    14    23 ar  
    31    15    16 ar  
    32    15    39 1   
    33    16    17 ar  
    34    16    40 1   
    35    17    18 ar  
    36    17    41 1   
    37    18    19 ar  
    38    18    23 ar  
    39    19    20 ar  
    40    19    42 1   
    41    20    21 ar  
    42    20    43 1   
    43    21    22 ar  
    44    21    44 1   
    45    22    23 ar  
    46    22    45 1   
    47    24    25 1   
    48    24    46 1   
    49    25    26 2   
    50    25    27 1   
@<TRIPOS>SUBSTRUCTURE
     1 BYK         1 TEMP              0 ****  ****    0 ROOT
