@<TRIPOS>MOLECULE
BYK
   47    50     1     0     0
SMALL
abcg2


@<TRIPOS>ATOM
      1 O01         53.1600     4.2620    45.3290 o          1 BYK      -0.673000
      2 C02         52.4440     3.2370    45.2910 c          1 BYK       0.724000
      3 O03         52.6960     2.1310    44.7730 o          1 BYK      -0.673000
      4 C04         51.0580     3.4130    46.0010 c5         1 BYK      -0.087300
      5 C05         51.2020     3.6820    47.4900 c5         1 BYK       0.094600
      6 S06         51.3160     2.0180    48.2450 ss         1 BYK      -0.334600
      7 C07         50.3650     1.3310    46.9400 cc         1 BYK       0.272200
      8 C08         49.7880     0.0880    46.8660 cd         1 BYK      -0.221000
      9 N09         49.8580    -0.8610    47.9920 nx         1 BYK      -0.529000
     10 C10         51.2530    -1.2960    48.3520 c3         1 BYK       0.083900
     11 C11         49.0610    -0.4290    49.1950 c3         1 BYK       0.083900
     12 C12         49.0730    -0.2870    45.6950 cd         1 BYK      -0.003200
     13 C13         48.4380    -1.6630    45.6000 c3         1 BYK       0.007100
     14 C14         47.9600    -2.0550    44.2270 ca         1 BYK      -0.088300
     15 C15         46.6160    -2.0450    43.9410 ca         1 BYK      -0.093000
     16 C16         46.1310    -2.4040    42.6660 ca         1 BYK      -0.115000
     17 C17         47.0040    -2.7750    41.6790 ca         1 BYK      -0.079000
     18 C18         48.3990    -2.8020    41.9250 ca         1 BYK      -0.038000
     19 C19         49.3170    -3.1820    40.9150 ca         1 BYK      -0.095000
     20 C20         50.6660    -3.1990    41.1590 ca         1 BYK      -0.100000
     21 C21         51.1570    -2.8350    42.4310 ca         1 BYK      -0.086000
     22 C22         50.2930    -2.4620    43.4310 ca         1 BYK      -0.106000
     23 C23         48.8920    -2.4360    43.2150 ca         1 BYK      -0.022000
     24 C24         48.9540     0.6150    44.6780 cc         1 BYK      -0.269200
     25 C25         49.5420     1.9190    44.7240 c          1 BYK       0.571200
     26 O26         49.4810     2.7640    43.8260 o          1 BYK      -0.491000
     27 N27         50.2380     2.2030    45.9040 n          1 BYK      -0.205000
     28 H041        50.5300     4.2270    45.5120 h1         1 BYK       0.116700
     29 H052        52.1110     4.2310    47.7150 h1         1 BYK       0.095200
     30 H051        50.3370     4.1920    47.9100 h1         1 BYK       0.095200
     31 H102        51.1680    -2.1310    49.0420 hx         1 BYK       0.092700
     32 H101        51.7570    -1.5960    47.4380 hx         1 BYK       0.092700
     33 H103        51.7760    -0.4730    48.8270 hx         1 BYK       0.092700
     34 H112        49.0800    -1.2440    49.9130 hx         1 BYK       0.092700
     35 H113        49.5120     0.4630    49.6160 hx         1 BYK       0.092700
     36 H111        48.0470    -0.2290    48.8640 hx         1 BYK       0.092700
     37 H131        47.5920    -1.6990    46.2920 hc         1 BYK       0.039200
     38 H132        49.1540    -2.4160    45.9450 hc         1 BYK       0.039200
     39 H151        45.9130    -1.7540    44.7130 ha         1 BYK       0.107000
     40 H161        45.0660    -2.3840    42.4770 ha         1 BYK       0.118000
     41 H171        46.6430    -3.0530    40.6960 ha         1 BYK       0.119000
     42 H191        48.9300    -3.4590    39.9420 ha         1 BYK       0.116000
     43 H201        51.3590    -3.4910    40.3800 ha         1 BYK       0.120000
     44 H211        52.2230    -2.8480    42.6180 ha         1 BYK       0.122000
     45 H221        50.6950    -2.1830    44.3950 ha         1 BYK       0.107000
     46 H241        48.4200     0.3610    43.7760 ha         1 BYK       0.229000
     47 H091        49.3980    -1.7100    47.6620 hn         1 BYK       0.488000
@<TRIPOS>BOND
     1     1     2 1   
     2     2     3 1   
     3     2     4 1   
     4     4     5 1   
     5     4    27 1   
     6     4    28 1   
     7     5     6 1   
     8     5    29 1   
     9     5    30 1   
    10     6     7 1   
    11     7     8 2   
    12     7    27 1   
    13     8     9 1   
    14     8    12 1   
    15     9    10 1   
    16     9    11 1   
    17     9    47 1   
    18    10    31 1   
    19    10    32 1   
    20    10    33 1   
    21    11    34 1   
    22    11    35 1   
    23    11    36 1   
    24    12    13 1   
    25    12    24 2   
    26    13    14 1   
    27    13    37 1   
    28    13    38 1   
    29    14    15 ar  
    30    14    23 ar  
    31    15    16 ar  
    32    15    39 1   
    33    16    17 ar  
    34    16    40 1   
    35    17    18 ar  
    36    17    41 1   
    37    18    19 ar  
    38    18    23 ar  
    39    19    20 ar  
    40    19    42 1   
    41    20    21 ar  
    42    20    43 1   
    43    21    22 ar  
    44    21    44 1   
    45    22    23 ar  
    46    22    45 1   
    47    24    25 1   
    48    24    46 1   
    49    25    26 2   
    50    25    27 1   
@<TRIPOS>SUBSTRUCTURE
     1 BYK         1 TEMP              0 ****  ****    0 ROOT
