@<TRIPOS>MOLECULE
BYL
   65    70     1     0     0
SMALL
No Charge or Current Charge


@<TRIPOS>ATOM
      1 Cl01         8.3340    -4.7450    16.4540 cl         1 BYL      -0.205000
      2 C02          6.6870    -4.6690    17.0880 ca         1 BYL       0.093000
      3 C03          6.4620    -3.8420    18.2020 ca         1 BYL      -0.045000
      4 C04          5.1750    -3.7370    18.7560 ca         1 BYL      -0.200000
      5 C05          4.9210    -2.9180    19.8720 ca         1 BYL       0.179900
      6 N06          3.6880    -2.8160    20.4020 nb         1 BYL      -0.227000
      7 C07          2.7210    -3.5340    19.8080 ca         1 BYL       0.391900
      8 N08          1.4630    -3.4130    20.3880 nu         1 BYL      -0.898900
      9 C09          0.2060    -3.9410    20.1060 cc         1 BYL       0.183000
     10 C10         -0.8990    -3.9310    20.9040 cd         1 BYL      -0.162300
     11 C11         -1.1010    -3.3690    22.2940 c3         1 BYL      -0.029800
     12 N12         -1.8760    -4.5810    20.1350 na         1 BYL       0.150800
     13 C13         -3.2410    -4.7840    20.6340 cx         1 BYL      -0.017700
     14 C14         -4.2690    -3.6970    20.8360 cx         1 BYL       0.136000
     15 F15         -3.9960    -2.4230    20.4390 f          1 BYL      -0.075000
     16 F16         -5.0210    -3.6900    21.9710 f          1 BYL      -0.075000
     17 C17         -4.5020    -4.7600    19.7950 cx         1 BYL      -0.140400
     18 N18         -1.4410    -5.0100    18.8940 nd         1 BYL      -0.507800
     19 C19         -0.1840    -4.6060    18.9100 cc         1 BYL       0.265900
     20 N20          2.8640    -4.3470    18.7430 nb         1 BYL      -0.241000
     21 C21          4.0960    -4.4550    18.2030 ca         1 BYL       0.087000
     22 C22          4.3280    -5.2800    17.0900 ca         1 BYL      -0.105000
     23 C23          5.6150    -5.4020    16.5150 ca         1 BYL      -0.022300
     24 C24          5.8040    -6.3250    15.2910 c6         1 BYL      -0.025400
     25 C25          4.9600    -5.8670    14.0750 c6         1 BYL      -0.073900
     26 C26          5.1460    -6.8210    12.8720 c6         1 BYL       0.172300
     27 N27          4.7900    -8.2330    13.2210 n3         1 BYL      -0.746600
     28 C28          4.7380    -9.1900    12.0400 c5         1 BYL       0.120200
     29 C29          6.1060    -9.5150    11.3840 c3         1 BYL      -0.111100
     30 C30          3.6660    -8.6620    11.0280 c5         1 BYL       0.159600
     31 O31          3.2200    -9.8400    10.3200 os         1 BYL      -0.454000
     32 C32          3.2650   -10.9690    11.2320 c5         1 BYL       0.139600
     33 C33          3.9190   -10.4580    12.5620 c5         1 BYL       0.145300
     34 O34          2.9410   -10.0950    13.5740 oh         1 BYL      -0.725000
     35 C35          5.6480    -8.6950    14.3640 c6         1 BYL       0.172300
     36 C36          5.4670    -7.8020    15.6120 c6         1 BYL      -0.073900
     37 H1           7.2910    -3.2860    18.6330 ha         1 BYL       0.131000
     38 H2           5.7110    -2.3370    20.3470 h4         1 BYL       0.026100
     39 H3           1.4830    -2.8520    21.2410 hn         1 BYL       0.518000
     40 H4          -1.6760    -2.4360    22.2600 hc         1 BYL       0.053700
     41 H5          -1.6430    -4.0750    22.9350 hc         1 BYL       0.053700
     42 H6          -0.1450    -3.1530    22.7840 hc         1 BYL       0.053700
     43 H7          -3.1720    -5.5510    21.4050 h1         1 BYL       0.115700
     44 H8          -5.2590    -5.5120    19.9980 hc         1 BYL       0.112700
     45 H9          -4.4120    -4.4710    18.7520 hc         1 BYL       0.112700
     46 H10          0.4210    -4.8000    18.0360 h4         1 BYL       0.061100
     47 H11          3.4920    -5.8320    16.6690 ha         1 BYL       0.139000
     48 H12          6.8520    -6.3070    14.9670 hc         1 BYL       0.064700
     49 H13          5.2480    -4.8480    13.7840 hc         1 BYL       0.056450
     50 H14          3.8940    -5.8290    14.3360 hc         1 BYL       0.056450
     51 H15          6.1890    -6.7670    12.5270 h1         1 BYL       0.038700
     52 H16          4.5200    -6.4440    12.0510 h1         1 BYL       0.038700
     53 H18          6.7850   -10.0030    12.0920 hc         1 BYL       0.044700
     54 H19          5.9900   -10.1900    10.5280 hc         1 BYL       0.044700
     55 H20          6.5970    -8.6060    11.0190 hc         1 BYL       0.044700
     56 H21          4.0710    -7.9300    10.3170 h1         1 BYL       0.053700
     57 H22          2.8040    -8.2120    11.5400 h1         1 BYL       0.053700
     58 H23          2.2490   -11.3540    11.3930 h1         1 BYL       0.055700
     59 H24          3.8660   -11.7650    10.7720 h1         1 BYL       0.055700
     60 H25          4.6000   -11.2170    12.9700 h1         1 BYL       0.053700
     61 H26          3.2980    -9.1990    13.8240 ho         1 BYL       0.537000
     62 H27          5.4110    -9.7300    14.6470 h1         1 BYL       0.038700
     63 H28          6.7080    -8.6830    14.0720 h1         1 BYL       0.038700
     64 H29          4.4340    -7.8950    15.9740 hc         1 BYL       0.056450
     65 H30          6.1160    -8.1650    16.4200 hc         1 BYL       0.056450
@<TRIPOS>BOND
     1     1     2 1   
     2     2     3 ar  
     3     2    23 ar  
     4     3     4 ar  
     5     3    37 1   
     6     4     5 ar  
     7     4    21 ar  
     8     5     6 ar  
     9     5    38 1   
    10     6     7 ar  
    11     7     8 1   
    12     7    20 ar  
    13     8     9 1   
    14     8    39 1   
    15     9    10 2   
    16     9    19 1   
    17    10    11 1   
    18    10    12 1   
    19    11    40 1   
    20    11    41 1   
    21    11    42 1   
    22    12    13 1   
    23    12    18 1   
    24    13    14 1   
    25    13    17 1   
    26    13    43 1   
    27    14    15 1   
    28    14    16 1   
    29    14    17 1   
    30    17    44 1   
    31    17    45 1   
    32    18    19 2   
    33    19    46 1   
    34    20    21 ar  
    35    21    22 ar  
    36    22    23 ar  
    37    22    47 1   
    38    23    24 1   
    39    24    25 1   
    40    24    36 1   
    41    24    48 1   
    42    25    26 1   
    43    25    49 1   
    44    25    50 1   
    45    26    27 1   
    46    26    51 1   
    47    26    52 1   
    48    27    28 1   
    49    27    35 1   
    50    28    29 1   
    51    28    30 1   
    52    28    33 1   
    53    29    53 1   
    54    29    54 1   
    55    29    55 1   
    56    30    31 1   
    57    30    56 1   
    58    30    57 1   
    59    31    32 1   
    60    32    33 1   
    61    32    58 1   
    62    32    59 1   
    63    33    34 1   
    64    33    60 1   
    65    34    61 1   
    66    35    36 1   
    67    35    62 1   
    68    35    63 1   
    69    36    64 1   
    70    36    65 1   
@<TRIPOS>SUBSTRUCTURE
     1 BYL         1 TEMP              0 ****  ****    0 ROOT
