@<TRIPOS>MOLECULE
BYL
   65    70     1     0     0
SMALL
bcc


@<TRIPOS>ATOM
      1 CL01         7.8810    -4.6950    16.0670 cl         1 BYL      -0.113400
      2 C02          6.3150    -4.5410    16.8030 ca         1 BYL       0.001400
      3 C03          6.1310    -3.5320    17.7070 ca         1 BYL      -0.063000
      4 C04          4.8850    -3.3910    18.3340 ca         1 BYL      -0.330600
      5 C05          4.5950    -2.3890    19.2900 ca         1 BYL       0.508200
      6 N06          3.4390    -2.2860    19.8700 nb         1 BYL      -0.753000
      7 C07          2.4900    -3.2020    19.5150 ca         1 BYL       0.917900
      8 N08          1.3200    -3.0360    20.1740 nu         1 BYL      -0.705300
      9 C09          0.1660    -3.8000    20.0520 cc         1 BYL      -0.020700
     10 C10         -0.7870    -3.9420    21.0420 cd         1 BYL      -0.111600
     11 C11         -0.8260    -3.4250    22.4330 c3         1 BYL      -0.029800
     12 N12         -1.7720    -4.6900    20.4880 na         1 BYL       0.129400
     13 C13         -2.9490    -5.1380    21.1460 cx         1 BYL      -0.047000
     14 C14         -4.0240    -4.1570    21.4290 cx         1 BYL       0.378600
     15 F15         -3.8240    -2.8660    21.1210 f          1 BYL      -0.196300
     16 F16         -4.6940    -4.2390    22.5880 f          1 BYL      -0.196300
     17 C17         -4.2550    -5.1300    20.3600 cx         1 BYL      -0.140400
     18 N18         -1.5060    -5.0600    19.2380 nd         1 BYL      -0.507800
     19 C19         -0.3380    -4.5230    18.9510 cc         1 BYL       0.331200
     20 N20          2.6280    -4.1640    18.6370 nb         1 BYL      -0.767000
     21 C21          3.8320    -4.2760    18.0350 ca         1 BYL       0.480600
     22 C22          4.0620    -5.2980    17.0920 ca         1 BYL      -0.188300
     23 C23          5.2800    -5.4550    16.4700 ca         1 BYL      -0.022300
     24 C24          5.5160    -6.5460    15.4580 c6         1 BYL      -0.025400
     25 C25          5.4360    -6.0080    14.0250 c6         1 BYL      -0.073900
     26 C26          5.7510    -7.1060    13.0200 c6         1 BYL       0.172300
     27 N27          4.8460    -8.2350    13.1880 n3         1 BYL      -0.746600
     28 C28          4.9020    -9.2400    12.1310 c5         1 BYL       0.120200
     29 C29          6.1000   -10.1870    12.2180 c3         1 BYL      -0.111100
     30 C30          4.8270    -8.6060    10.7320 c5         1 BYL       0.136400
     31 O31          4.2740    -9.5970     9.8930 os         1 BYL      -0.407600
     32 C32          3.5000   -10.5020    10.6680 c5         1 BYL       0.116400
     33 C33          3.5670   -10.0260    12.1110 c5         1 BYL       0.122100
     34 O34          2.4980    -9.1630    12.4040 oh         1 BYL      -0.602800
     35 C35          4.9550    -8.7890    14.5330 c6         1 BYL       0.172300
     36 C36          4.5800    -7.7450    15.5740 c6         1 BYL      -0.073900
     37 H1           6.9350    -2.8470    17.9490 ha         1 BYL       0.149000
     38 H2           5.3590    -1.6670    19.5640 h4         1 BYL       0.026100
     39 H3           1.3090    -2.2710    20.8310 hn         1 BYL       0.462800
     40 H4          -1.4620    -2.5440    22.5240 hc         1 BYL       0.053700
     41 H5          -1.1980    -4.1750    23.1310 hc         1 BYL       0.053700
     42 H6           0.1740    -3.1450    22.7610 hc         1 BYL       0.053700
     43 H7          -2.8100    -5.9470    21.8570 h1         1 BYL       0.115700
     44 H8          -4.9320    -5.9550    20.5380 hc         1 BYL       0.112700
     45 H9          -4.2140    -4.7770    19.3370 hc         1 BYL       0.112700
     46 H10          0.1100    -4.6700    17.9830 h4         1 BYL       0.061100
     47 H11          3.2450    -5.9720    16.8750 ha         1 BYL       0.157000
     48 H12          6.5350    -6.9220    15.6120 hc         1 BYL       0.064700
     49 H13          6.1330    -5.1820    13.8740 hc         1 BYL       0.056450
     50 H14          4.4290    -5.6210    13.8410 hc         1 BYL       0.056450
     51 H15          6.8040    -7.4080    13.1360 h1         1 BYL       0.038700
     52 H16          5.6460    -6.6970    12.0150 h1         1 BYL       0.038700
     53 H18          6.0460   -10.8290    13.0970 hc         1 BYL       0.044700
     54 H19          6.1610   -10.8360    11.3440 hc         1 BYL       0.044700
     55 H20          7.0340    -9.6240    12.2660 hc         1 BYL       0.044700
     56 H21          5.8070    -8.3240    10.3400 h1         1 BYL       0.053700
     57 H22          4.1970    -7.7060    10.7490 h1         1 BYL       0.053700
     58 H23          2.4660   -10.5300    10.3110 h1         1 BYL       0.055700
     59 H24          3.9130   -11.5110    10.5690 h1         1 BYL       0.055700
     60 H25          3.5810   -10.8810    12.8000 h1         1 BYL       0.053700
     61 H26          2.9090    -8.4040    12.8540 ho         1 BYL       0.438000
     62 H27          4.2900    -9.6490    14.6260 h1         1 BYL       0.038700
     63 H28          5.9720    -9.1530    14.7420 h1         1 BYL       0.038700
     64 H29          3.5410    -7.4470    15.4130 hc         1 BYL       0.056450
     65 H30          4.6430    -8.1890    16.5700 hc         1 BYL       0.056450
@<TRIPOS>BOND
     1     1     2 1   
     2     2     3 ar  
     3     2    23 ar  
     4     3     4 ar  
     5     3    37 1   
     6     4     5 ar  
     7     4    21 ar  
     8     5     6 ar  
     9     5    38 1   
    10     6     7 ar  
    11     7     8 1   
    12     7    20 ar  
    13     8     9 1   
    14     8    39 1   
    15     9    10 2   
    16     9    19 1   
    17    10    11 1   
    18    10    12 1   
    19    11    40 1   
    20    11    41 1   
    21    11    42 1   
    22    12    13 1   
    23    12    18 1   
    24    13    14 1   
    25    13    17 1   
    26    13    43 1   
    27    14    15 1   
    28    14    16 1   
    29    14    17 1   
    30    17    44 1   
    31    17    45 1   
    32    18    19 2   
    33    19    46 1   
    34    20    21 ar  
    35    21    22 ar  
    36    22    23 ar  
    37    22    47 1   
    38    23    24 1   
    39    24    25 1   
    40    24    36 1   
    41    24    48 1   
    42    25    26 1   
    43    25    49 1   
    44    25    50 1   
    45    26    27 1   
    46    26    51 1   
    47    26    52 1   
    48    27    28 1   
    49    27    35 1   
    50    28    29 1   
    51    28    30 1   
    52    28    33 1   
    53    29    53 1   
    54    29    54 1   
    55    29    55 1   
    56    30    31 1   
    57    30    56 1   
    58    30    57 1   
    59    31    32 1   
    60    32    33 1   
    61    32    58 1   
    62    32    59 1   
    63    33    34 1   
    64    33    60 1   
    65    34    61 1   
    66    35    36 1   
    67    35    62 1   
    68    35    63 1   
    69    36    64 1   
    70    36    65 1   
@<TRIPOS>SUBSTRUCTURE
     1 BYL         1 TEMP              0 ****  ****    0 ROOT
