@<TRIPOS>MOLECULE
BYM
   24    26     1     0     0
SMALL
abcg2


@<TRIPOS>ATOM
      1 C1           3.7710     1.3320     0.0790 c          1 BYM       0.584200
      2 C3           4.7450    -0.8150     0.0980 c          1 BYM       0.598600
      3 C8          -2.3010     0.6250     0.0570 ca         1 BYM       0.046100
      4 C9          -2.4860    -0.6780    -0.3560 ca         1 BYM       0.075100
      5 C11         -1.0670     1.2020     0.1380 ca         1 BYM      -0.052000
      6 C13         -1.4390    -1.4840    -0.7210 ca         1 BYM      -0.081000
      7 C14         -4.4560     0.1920     0.0920 c5         1 BYM       0.597000
      8 C15          0.0370     0.3960    -0.2070 ca         1 BYM      -0.076800
      9 C16         -0.1680    -0.9200    -0.6360 ca         1 BYM      -0.071000
     10 N2           4.8930     0.5420     0.1590 ns         1 BYM      -0.478500
     11 S4           3.0220    -1.2180    -0.0810 ss         1 BYM      -0.184200
     12 C5           2.5670     0.4750    -0.0560 cc         1 BYM      -0.116600
     13 O6           5.6170    -1.6360     0.1490 o          1 BYM      -0.458000
     14 O7           3.7860     2.5380     0.1200 o          1 BYM      -0.485000
     15 O10         -3.5240     1.1690     0.3270 os         1 BYM      -0.350100
     16 O12         -3.8210    -0.9470    -0.3390 os         1 BYM      -0.349100
     17 C18          1.3440     1.0200    -0.0980 cf         1 BYM      -0.038200
     18 F19         -5.3360     0.6010    -0.8210 f          1 BYM      -0.077500
     19 H11         -0.9380     2.2280     0.4550 ha         1 BYM       0.147000
     20 H13         -1.5840    -2.4990    -1.0640 ha         1 BYM       0.149000
     21 H16          0.6620    -1.5320    -0.9570 ha         1 BYM       0.136000
     22 HN2          5.8160     0.9480     0.2620 hn         1 BYM       0.355500
     23 H18          1.3270     2.1020    -0.0140 ha         1 BYM       0.206000
     24 F17         -5.1520    -0.0610     1.2000 f          1 BYM      -0.077500
@<TRIPOS>BOND
     1     1    10 1   
     2     1    12 1   
     3     1    14 2   
     4     2    10 1   
     5     2    11 1   
     6     2    13 2   
     7     3     4 ar  
     8     3     5 ar  
     9     3    15 1   
    10     4     6 ar  
    11     4    16 1   
    12     5     8 ar  
    13     5    19 1   
    14     6     9 ar  
    15     6    20 1   
    16     7    15 1   
    17     7    16 1   
    18     7    18 1   
    19     7    24 1   
    20     8     9 ar  
    21     8    17 1   
    22     9    21 1   
    23    10    22 1   
    24    11    12 1   
    25    12    17 2   
    26    17    23 1   
@<TRIPOS>SUBSTRUCTURE
     1 BYM         1 TEMP              0 ****  ****    0 ROOT
