@<TRIPOS>MOLECULE
BYM
   24    26     1     0     0
SMALL
No Charge or Current Charge


@<TRIPOS>ATOM
      1 C1           3.8410     1.3320     0.2120 c          1 BYM       0.584200
      2 C3           4.9290    -0.7300    -0.2530 c          1 BYM       0.598600
      3 C8          -2.3870     0.6350    -0.0030 ca         1 BYM       0.046100
      4 C9          -2.5880    -0.6800    -0.3080 ca         1 BYM       0.075100
      5 C11         -1.1010     1.1710     0.1320 ca         1 BYM      -0.052000
      6 C13         -1.5170    -1.5550    -0.5010 ca         1 BYM      -0.081000
      7 C14         -4.5610     0.2800    -0.1050 c5         1 BYM       0.597000
      8 C15          0.0210     0.3220    -0.0540 ca         1 BYM      -0.076800
      9 C16         -0.2060    -1.0460    -0.3720 ca         1 BYM      -0.071000
     10 N2           4.9650     0.5910     0.0520 ns         1 BYM      -0.478500
     11 S4           3.1790    -1.1940    -0.3750 ss         1 BYM      -0.184200
     12 C5           2.6700     0.4540    -0.0000 cc         1 BYM      -0.116600
     13 O6           5.9020    -1.4490    -0.4100 o          1 BYM      -0.458000
     14 O7           3.8420     2.5210     0.4860 o          1 BYM      -0.485000
     15 O10         -3.5520     1.3180     0.1440 os         1 BYM      -0.350100
     16 O12         -3.9040    -1.0010    -0.3940 os         1 BYM      -0.349100
     17 C18          1.3760     0.9120     0.0940 cf         1 BYM      -0.038200
     18 F19         -5.3590     0.6510    -1.1830 f          1 BYM      -0.077500
     19 H11         -0.9810     2.2240     0.3760 ha         1 BYM       0.147000
     20 H13         -1.6910    -2.6010    -0.7440 ha         1 BYM       0.149000
     21 H16          0.6170    -1.7330    -0.5230 ha         1 BYM       0.136000
     22 HN2          5.8610     1.0390     0.1630 hn         1 BYM       0.355500
     23 H18          1.3380     1.9760     0.3390 ha         1 BYM       0.206000
     24 F17         -5.3790     0.1440     1.0140 f          1 BYM      -0.077500
@<TRIPOS>BOND
     1     1    10 1   
     2     1    12 1   
     3     1    14 2   
     4     2    10 1   
     5     2    11 1   
     6     2    13 2   
     7     3     4 ar  
     8     3     5 ar  
     9     3    15 1   
    10     4     6 ar  
    11     4    16 1   
    12     5     8 ar  
    13     5    19 1   
    14     6     9 ar  
    15     6    20 1   
    16     7    15 1   
    17     7    16 1   
    18     7    18 1   
    19     7    24 1   
    20     8     9 ar  
    21     8    17 1   
    22     9    21 1   
    23    10    22 1   
    24    11    12 1   
    25    12    17 2   
    26    17    23 1   
@<TRIPOS>SUBSTRUCTURE
     1 BYM         1 TEMP              0 ****  ****    0 ROOT
