@<TRIPOS>MOLECULE
BYP
   53    55     1     0     0
SMALL
bcc


@<TRIPOS>ATOM
      1 C22          0.2880     0.3700     5.8390 c3         1 BYP       0.104400
      2 N1          -1.5260    -0.2880    -1.5520 nb         1 BYP      -0.788000
      3 C2          -2.1850    -0.3840    -2.7010 ca         1 BYP       0.533200
      4 C6          -0.2100    -0.1460    -1.6560 ca         1 BYP       0.962900
      5 C4          -0.1630    -0.1960    -3.9410 ca         1 BYP       0.787200
      6 C3          -1.5730    -0.3450    -3.9300 ca         1 BYP      -0.395500
      7 N5           0.4840    -0.1000    -2.7950 nb         1 BYP      -0.854000
      8 C11          4.6330     0.1760    -5.9100 ca         1 BYP      -0.146000
      9 C10          3.7770    -0.5040    -6.7650 ca         1 BYP      -0.107500
     10 C9           2.4300    -0.6150    -6.4630 ca         1 BYP      -0.153000
     11 C8           1.9110    -0.0390    -5.3020 ca         1 BYP       0.161600
     12 C12          4.1170     0.7540    -4.7590 ca         1 BYP      -0.107500
     13 C17         -1.2080    -0.6390     2.6840 ca         1 BYP      -0.166500
     14 C16         -0.9700    -0.6300     1.3210 ca         1 BYP      -0.122000
     15 C13          2.7670     0.6590    -4.4490 ca         1 BYP      -0.153000
     16 C15          0.1900    -0.0400     0.8120 ca         1 BYP       0.134600
     17 C18         -0.3030    -0.0750     3.5820 ca         1 BYP       0.122100
     18 C19          0.8520     0.5180     3.0800 ca         1 BYP      -0.166500
     19 C20          1.0840     0.5320     1.7130 ca         1 BYP      -0.122000
     20 O21         -0.6200    -0.1540     4.8920 os         1 BYP      -0.303900
     21 N7           0.5290    -0.1580    -5.1020 nu         1 BYP      -0.738300
     22 BR          -2.5950    -0.4830    -5.5030 br         1 BYP      -0.080100
     23 C23         -0.2250     0.0290     7.2290 c3         1 BYP       0.148100
     24 C24          0.8050     0.4850     8.2600 c3         1 BYP       0.128800
     25 N25          0.4260     0.2010     9.6270 n3         1 BYP      -0.701600
     26 C26          0.4230    -1.2170     9.9130 c3         1 BYP       0.147600
     27 C27          1.2840     0.9110    10.5530 c3         1 BYP       0.147600
     28 O28         -1.5050     0.5590     7.4690 oh         1 BYP      -0.563800
     29 H221         0.3840     1.4580     5.7220 h1         1 BYP       0.034200
     30 H222         1.2850    -0.0660     5.7040 h1         1 BYP       0.034200
     31 H2          -3.2620    -0.4960    -2.6300 h4         1 BYP       0.034100
     32 H10          4.1560    -0.9590    -7.6710 ha         1 BYP       0.131500
     33 H9           1.7720    -1.1570    -7.1330 ha         1 BYP       0.142500
     34 H12          4.7690     1.2980    -4.0880 ha         1 BYP       0.131500
     35 H17         -2.1100    -1.1030     3.0620 ha         1 BYP       0.141500
     36 H16         -1.6920    -1.0840     0.6620 ha         1 BYP       0.146000
     37 H13          2.3920     1.1270    -3.5540 ha         1 BYP       0.142500
     38 H19          1.5850     0.9780     3.7280 ha         1 BYP       0.141500
     39 H20          1.9910     0.9990     1.3460 ha         1 BYP       0.146000
     40 H7           0.0100    -0.3740    -5.9390 hn         1 BYP       0.455800
     41 H23         -0.3380    -1.0590     7.2800 h1         1 BYP       0.084700
     42 H241         0.9350     1.5690     8.1620 h1         1 BYP       0.033200
     43 H242         1.7800     0.0350     8.0040 h1         1 BYP       0.033200
     44 H261         0.1630    -1.3810    10.9600 h1         1 BYP       0.032867
     45 H262        -0.3220    -1.7380     9.3110 h1         1 BYP       0.032867
     46 H263         1.3980    -1.6960     9.7290 h1         1 BYP       0.032867
     47 H271         1.2130     1.9860    10.3840 h1         1 BYP       0.032867
     48 H272         0.9690     0.7130    11.5780 h1         1 BYP       0.032867
     49 H273         2.3460     0.6290    10.4710 h1         1 BYP       0.032867
     50 H28         -1.4180     1.5020     7.6460 ho         1 BYP       0.401000
     51 N14          0.5490    -0.0290    -0.5390 nu         1 BYP      -0.729300
     52 H11          5.6870     0.2590    -6.1410 ha         1 BYP       0.134000
     53 H14          1.5230     0.1510    -0.7290 hn         1 BYP       0.453800
@<TRIPOS>BOND
     1     1    20 1   
     2     1    23 1   
     3     1    29 1   
     4     1    30 1   
     5     2     3 ar  
     6     2     4 ar  
     7     3     6 ar  
     8     3    31 1   
     9     4     7 ar  
    10     4    51 1   
    11     5     6 ar  
    12     5     7 ar  
    13     5    21 1   
    14     6    22 1   
    15     8     9 ar  
    16     8    12 ar  
    17     8    52 1   
    18     9    10 ar  
    19     9    32 1   
    20    10    11 ar  
    21    10    33 1   
    22    11    15 ar  
    23    11    21 1   
    24    12    15 ar  
    25    12    34 1   
    26    13    14 ar  
    27    13    17 ar  
    28    13    35 1   
    29    14    16 ar  
    30    14    36 1   
    31    15    37 1   
    32    16    19 ar  
    33    16    51 1   
    34    17    18 ar  
    35    17    20 1   
    36    18    19 ar  
    37    18    38 1   
    38    19    39 1   
    39    21    40 1   
    40    23    24 1   
    41    23    28 1   
    42    23    41 1   
    43    24    25 1   
    44    24    42 1   
    45    24    43 1   
    46    25    26 1   
    47    25    27 1   
    48    26    44 1   
    49    26    45 1   
    50    26    46 1   
    51    27    47 1   
    52    27    48 1   
    53    27    49 1   
    54    28    50 1   
    55    51    53 1   
@<TRIPOS>SUBSTRUCTURE
     1 BYP         1 TEMP              0 ****  ****    0 ROOT
