@<TRIPOS>MOLECULE
BYP
   53    55     1     0     0
SMALL
No Charge or Current Charge


@<TRIPOS>ATOM
      1 C22          0.5290     0.2140     5.9380 c3         1 BYP       0.127600
      2 N1          -1.4930    -0.1910    -1.6020 nb         1 BYP      -0.262000
      3 C2          -2.1980    -0.2410    -2.7470 ca         1 BYP       0.204900
      4 C6          -0.1550    -0.1580    -1.7250 ca         1 BYP       0.436900
      5 C4          -0.1590    -0.1840    -4.0030 ca         1 BYP       0.458900
      6 C3          -1.5610    -0.2470    -3.9970 ca         1 BYP      -0.264900
      7 N5           0.5480    -0.1460    -2.8650 nb         1 BYP      -0.328000
      8 C11          4.5360     0.2980    -6.4460 ca         1 BYP      -0.128000
      9 C10          3.6380    -0.4600    -7.2150 ca         1 BYP      -0.089500
     10 C9           2.3070    -0.6180    -6.7860 ca         1 BYP      -0.135000
     11 C8           1.8660    -0.0330    -5.5850 ca         1 BYP       0.300000
     12 C12          4.1020     0.9010    -5.2540 ca         1 BYP      -0.089500
     13 C17         -0.9430    -0.9440     2.7110 ca         1 BYP      -0.148500
     14 C16         -0.7330    -0.8780     1.3200 ca         1 BYP      -0.104000
     15 C13          2.7710     0.7390    -4.8280 ca         1 BYP      -0.135000
     16 C15          0.3630    -0.1610     0.7960 ca         1 BYP       0.273000
     17 C18         -0.0610    -0.3050     3.5960 ca         1 BYP       0.122100
     18 C19          1.0470     0.4010     3.0790 ca         1 BYP      -0.148500
     19 C20          1.2540     0.4640     1.6880 ca         1 BYP      -0.104000
     20 O21         -0.3170    -0.4050     4.9480 os         1 BYP      -0.327100
     21 N7           0.5300    -0.2080    -5.2090 nu         1 BYP      -0.931900
     22 Br          -2.5980    -0.3290    -5.6130 br         1 BYP      -0.080100
     23 C23         -0.0380    -0.0960     7.3480 c3         1 BYP       0.171300
     24 C24          0.9000     0.3890     8.4840 c3         1 BYP       0.128800
     25 N25          0.2490     0.4430     9.8250 n3         1 BYP      -0.701600
     26 C26         -0.1440    -0.8900    10.3470 c3         1 BYP       0.147600
     27 C27          1.0610     1.1950    10.8080 c3         1 BYP       0.147600
     28 O28         -1.3110     0.5390     7.5540 oh         1 BYP      -0.626000
     29 H221         0.5720     1.3010     5.7910 h1         1 BYP       0.034200
     30 H222         1.5490    -0.1860     5.8680 h1         1 BYP       0.034200
     31 H2          -3.2830    -0.2790    -2.6580 h4         1 BYP       0.034100
     32 H10          3.9700    -0.9230    -8.1410 ha         1 BYP       0.113500
     33 H9           1.6200    -1.2070    -7.3880 ha         1 BYP       0.124500
     34 H12          4.7930     1.4980    -4.6640 ha         1 BYP       0.113500
     35 H17         -1.7910    -1.4990     3.1040 ha         1 BYP       0.123500
     36 H16         -1.4160    -1.4030     0.6620 ha         1 BYP       0.128000
     37 H13          2.4490     1.2340    -3.9190 ha         1 BYP       0.124500
     38 H19          1.7520     0.9030     3.7350 ha         1 BYP       0.123500
     39 H20          2.1100     1.0120     1.3020 ha         1 BYP       0.128000
     40 H7          -0.0810    -0.4730    -5.9810 hn         1 BYP       0.511000
     41 H23         -0.1430    -1.1860     7.4400 h1         1 BYP       0.084700
     42 H241         1.2530     1.3940     8.2150 h1         1 BYP       0.033200
     43 H242         1.7870    -0.2600     8.5160 h1         1 BYP       0.033200
     44 H261        -0.6470    -0.7920    11.3180 h1         1 BYP       0.032867
     45 H262        -0.8370    -1.3980     9.6640 h1         1 BYP       0.032867
     46 H263         0.7380    -1.5310    10.4820 h1         1 BYP       0.032867
     47 H271         1.2720     2.2090    10.4440 h1         1 BYP       0.032867
     48 H272         0.5280     1.2850    11.7640 h1         1 BYP       0.032867
     49 H273         2.0180     0.6900    10.9940 h1         1 BYP       0.032867
     50 H28         -1.2910     0.7590     8.5170 ho         1 BYP       0.440000
     51 N14          0.6210    -0.0790    -0.5790 nu         1 BYP      -0.922900
     52 H11          5.5650     0.4230    -6.7770 ha         1 BYP       0.116000
     53 H14          1.5870     0.1580    -0.8020 hn         1 BYP       0.509000
@<TRIPOS>BOND
     1     1    20 1   
     2     1    23 1   
     3     1    29 1   
     4     1    30 1   
     5     2     3 ar  
     6     2     4 ar  
     7     3     6 ar  
     8     3    31 1   
     9     4     7 ar  
    10     4    51 1   
    11     5     6 ar  
    12     5     7 ar  
    13     5    21 1   
    14     6    22 1   
    15     8     9 ar  
    16     8    12 ar  
    17     8    52 1   
    18     9    10 ar  
    19     9    32 1   
    20    10    11 ar  
    21    10    33 1   
    22    11    15 ar  
    23    11    21 1   
    24    12    15 ar  
    25    12    34 1   
    26    13    14 ar  
    27    13    17 ar  
    28    13    35 1   
    29    14    16 ar  
    30    14    36 1   
    31    15    37 1   
    32    16    19 ar  
    33    16    51 1   
    34    17    18 ar  
    35    17    20 1   
    36    18    19 ar  
    37    18    38 1   
    38    19    39 1   
    39    21    40 1   
    40    23    24 1   
    41    23    28 1   
    42    23    41 1   
    43    24    25 1   
    44    24    42 1   
    45    24    43 1   
    46    25    26 1   
    47    25    27 1   
    48    26    44 1   
    49    26    45 1   
    50    26    46 1   
    51    27    47 1   
    52    27    48 1   
    53    27    49 1   
    54    28    50 1   
    55    51    53 1   
@<TRIPOS>SUBSTRUCTURE
     1 BYP         1 TEMP              0 ****  ****    0 ROOT
