@<TRIPOS>MOLECULE
BYR
   23    23     1     0     0
SMALL
No Charge or Current Charge


@<TRIPOS>ATOM
      1 N          -31.5590    -6.1020   -32.0490 n8         1 BYR      -0.891800
      2 CA         -30.0660    -5.8580   -31.9710 c3         1 BYR       0.014500
      3 CB         -29.5050    -5.4360   -33.3570 c3         1 BYR      -0.006100
      4 CG         -30.0520    -4.1050   -33.8720 ca         1 BYR      -0.078300
      5 CD2        -29.3980    -2.8960   -33.5540 ca         1 BYR      -0.037000
      6 CE2        -29.8960    -1.6720   -34.0360 ca         1 BYR      -0.103900
      7 Br         -28.9850    -0.0470   -33.5810 br         1 BYR      -0.139100
      8 CZ         -31.0490    -1.6500   -34.8430 ca         1 BYR       0.141100
      9 OH         -31.5400    -0.4700   -35.3160 oh         1 BYR      -0.508100
     10 CE1        -31.7000    -2.8500   -35.1660 ca         1 BYR      -0.183000
     11 CD1        -31.2030    -4.0750   -34.6850 ca         1 BYR      -0.084000
     12 C          -29.5330    -4.8900   -30.8270 c          1 BYR       0.900600
     13 O          -30.3220    -4.1320   -30.2700 o          1 BYR      -0.836800
     14 OXT        -28.3660    -4.9980   -30.4660 o          1 BYR      -0.836800
     15 H          -31.8940    -6.4070   -31.1290 hn         1 BYR       0.329300
     16 H2         -32.0240    -5.1990   -32.1880 hn         1 BYR       0.329300
     17 HA         -29.6200    -6.8350   -31.7420 h1         1 BYR       0.039700
     18 HB2        -29.7230    -6.2300   -34.0810 hc         1 BYR       0.039700
     19 HB3        -28.4110    -5.3910   -33.2970 hc         1 BYR       0.039700
     20 HD2        -28.5040    -2.9060   -32.9340 ha         1 BYR       0.180000
     21 HH         -30.9560     0.2460   -34.9870 ho         1 BYR       0.429000
     22 HE1        -32.5890    -2.8330   -35.7910 ha         1 BYR       0.129000
     23 HD1        -31.7140    -5.0010   -34.9420 ha         1 BYR       0.132000
@<TRIPOS>BOND
     1     1     2 1   
     2     1    15 1   
     3     1    16 1   
     4     2     3 1   
     5     2    12 1   
     6     2    17 1   
     7     3     4 1   
     8     3    18 1   
     9     3    19 1   
    10     4     5 ar  
    11     4    11 ar  
    12     5     6 ar  
    13     5    20 1   
    14     6     7 1   
    15     6     8 ar  
    16     8     9 1   
    17     8    10 ar  
    18     9    21 1   
    19    10    11 ar  
    20    10    22 1   
    21    11    23 1   
    22    12    13 1   
    23    12    14 1   
@<TRIPOS>SUBSTRUCTURE
     1 BYR         1 TEMP              0 ****  ****    0 ROOT
