@<TRIPOS>MOLECULE
BYR
   23    23     1     0     0
SMALL
bcc


@<TRIPOS>ATOM
      1 N          -31.5330    -5.9280   -32.0180 n8         1 BYR      -0.891800
      2 CA         -30.0830    -5.8260   -31.9650 c3         1 BYR       0.014500
      3 CB         -29.5400    -5.4800   -33.3620 c3         1 BYR      -0.006100
      4 CG         -30.0410    -4.1620   -33.8820 ca         1 BYR      -0.078300
      5 CD2        -29.4530    -2.9660   -33.4850 ca         1 BYR      -0.037000
      6 CE2        -29.9390    -1.7480   -33.9370 ca         1 BYR      -0.103900
      7 BR         -29.0970    -0.1550   -33.3490 br         1 BYR      -0.139100
      8 CZ         -31.0290    -1.6750   -34.8070 ca         1 BYR       0.141100
      9 OH         -31.5560    -0.5430   -35.2970 oh         1 BYR      -0.508100
     10 CE1        -31.6140    -2.8770   -35.2040 ca         1 BYR      -0.183000
     11 CD1        -31.1320    -4.0890   -34.7460 ca         1 BYR      -0.084000
     12 C          -29.5030    -4.8570   -30.8990 c          1 BYR       0.900600
     13 O          -30.3070    -4.1650   -30.2470 o          1 BYR      -0.836800
     14 OXT        -28.2570    -4.8590   -30.7920 o          1 BYR      -0.836800
     15 H          -31.8660    -6.2500   -31.1180 hn         1 BYR       0.329300
     16 H2         -31.9160    -4.9940   -32.1050 hn         1 BYR       0.329300
     17 HA         -29.6960    -6.8250   -31.7300 h1         1 BYR       0.039700
     18 HB2        -29.8330    -6.2710   -34.0560 hc         1 BYR       0.039700
     19 HB3        -28.4500    -5.4770   -33.3250 hc         1 BYR       0.039700
     20 HD2        -28.6010    -2.9890   -32.8170 ha         1 BYR       0.180000
     21 HH         -31.0940     0.2430   -34.9830 ho         1 BYR       0.429000
     22 HE1        -32.4580    -2.8430   -35.8820 ha         1 BYR       0.129000
     23 HD1        -31.6110    -5.0020   -35.0780 ha         1 BYR       0.132000
@<TRIPOS>BOND
     1     1     2 1   
     2     1    15 1   
     3     1    16 1   
     4     2     3 1   
     5     2    12 1   
     6     2    17 1   
     7     3     4 1   
     8     3    18 1   
     9     3    19 1   
    10     4     5 ar  
    11     4    11 ar  
    12     5     6 ar  
    13     5    20 1   
    14     6     7 1   
    15     6     8 ar  
    16     8     9 1   
    17     8    10 ar  
    18     9    21 1   
    19    10    11 ar  
    20    10    22 1   
    21    11    23 1   
    22    12    13 1   
    23    12    14 1   
@<TRIPOS>SUBSTRUCTURE
     1 BYR         1 TEMP              0 ****  ****    0 ROOT
