@<TRIPOS>MOLECULE
BYS
   41    43     1     0     0
SMALL
No Charge or Current Charge


@<TRIPOS>ATOM
      1 C1           0.3430    -0.0950     1.6660 c3         1 BYS      -0.166700
      2 C2           1.4360     0.7490     2.3770 c          1 BYS       0.735000
      3 O3           1.4090     1.9670     2.2590 o          1 BYS      -0.745500
      4 O4           2.2820     0.1630     3.0380 o          1 BYS      -0.745500
      5 C5          -1.0620     0.2500     2.2420 c3         1 BYS      -0.023100
      6 C6          -1.1470     0.0740     3.7550 ca         1 BYS      -0.014300
      7 C7          -1.2000     1.1980     4.6040 ca         1 BYS      -0.098500
      8 C8          -1.2870     1.0310     5.9970 ca         1 BYS      -0.128500
      9 C9          -1.3220    -0.2590     6.5500 ca         1 BYS      -0.151000
     10 C10         -1.2710    -1.3830     5.7100 ca         1 BYS      -0.128500
     11 C11         -1.1850    -1.2170     4.3170 ca         1 BYS      -0.098500
     12 C12          0.4430     0.0570     0.1020 c3         1 BYS      -0.168700
     13 C13          1.9020    -0.1670    -0.3850 c          1 BYS       0.735000
     14 O14          2.4120    -1.2680    -0.2280 o          1 BYS      -0.744500
     15 O15          2.4810     0.7650    -0.9250 o          1 BYS      -0.744500
     16 C16         -0.5320    -0.8680    -0.6830 c3         1 BYS      -0.021100
     17 C17         -0.4280    -0.6950    -2.1950 ca         1 BYS      -0.008300
     18 C18         -0.9680     0.4570    -2.8130 ca         1 BYS      -0.085000
     19 C19         -0.8580     0.5790    -4.2030 ca         1 BYS       0.030100
     20 O20         -1.3290     1.6090    -4.9510 os         1 BYS      -0.362100
     21 C21         -0.8850     1.2550    -6.3090 c5         1 BYS       0.378600
     22 O22         -0.2620    -0.0780    -6.2860 os         1 BYS      -0.371100
     23 C23         -0.2510    -0.3810    -4.9630 ca         1 BYS       0.006100
     24 C24          0.2910    -1.5370    -4.3900 ca         1 BYS      -0.102000
     25 C25          0.1990    -1.6880    -2.9890 ca         1 BYS      -0.089000
     26 HC11         0.5420    -1.1470     1.9020 hc         1 BYS       0.045700
     27 HC51        -1.3270     1.2760     1.9590 hc         1 BYS       0.022200
     28 HC52        -1.8190    -0.3950     1.7840 hc         1 BYS       0.022200
     29 HC71        -1.1710     2.2010     4.1840 ha         1 BYS       0.121000
     30 HC81        -1.3260     1.9020     6.6470 ha         1 BYS       0.081000
     31 HC91        -1.3890    -0.3880     7.6280 ha         1 BYS       0.075000
     32 H101        -1.3000    -2.3830     6.1370 ha         1 BYS       0.081000
     33 H111        -1.1470    -2.0920     3.6720 ha         1 BYS       0.121000
     34 H121         0.1760     1.0930    -0.1410 hc         1 BYS       0.044700
     35 H161        -0.3470    -1.9120    -0.4040 hc         1 BYS       0.023700
     36 H162        -1.5650    -0.6540    -0.3890 hc         1 BYS       0.023700
     37 H181        -1.4590     1.2300    -2.2270 ha         1 BYS       0.130000
     38 H211        -0.1450     1.9900    -6.6460 h2         1 BYS       0.038200
     39 H212        -1.7470     1.2470    -6.9870 h2         1 BYS       0.038200
     40 H241         0.7690    -2.2940    -5.0060 ha         1 BYS       0.107000
     41 H251         0.6170    -2.5760    -2.5190 ha         1 BYS       0.139000
@<TRIPOS>BOND
     1     1     2 1   
     2     1     5 1   
     3     1    12 1   
     4     1    26 1   
     5     2     3 1   
     6     2     4 1   
     7     5     6 1   
     8     5    27 1   
     9     5    28 1   
    10     6     7 ar  
    11     6    11 ar  
    12     7     8 ar  
    13     7    29 1   
    14     8     9 ar  
    15     8    30 1   
    16     9    10 ar  
    17     9    31 1   
    18    10    11 ar  
    19    10    32 1   
    20    11    33 1   
    21    12    13 1   
    22    12    16 1   
    23    12    34 1   
    24    13    14 1   
    25    13    15 1   
    26    16    17 1   
    27    16    35 1   
    28    16    36 1   
    29    17    18 ar  
    30    17    25 ar  
    31    18    19 ar  
    32    18    37 1   
    33    19    20 1   
    34    19    23 ar  
    35    20    21 1   
    36    21    22 1   
    37    21    38 1   
    38    21    39 1   
    39    22    23 1   
    40    23    24 ar  
    41    24    25 ar  
    42    24    40 1   
    43    25    41 1   
@<TRIPOS>SUBSTRUCTURE
     1 BYS         1 TEMP              0 ****  ****    0 ROOT
