@<TRIPOS>MOLECULE
BYS
   41    43     1     0     0
SMALL
abcg2


@<TRIPOS>ATOM
      1 C1           0.3310     0.0030     1.6320 c3         1 BYS      -0.166700
      2 C2           1.3540     0.9570     2.2800 c          1 BYS       0.735000
      3 O3           1.0850     2.1770     2.2300 o          1 BYS      -0.745500
      4 O4           2.3720     0.4520     2.7950 o          1 BYS      -0.745500
      5 C5          -1.0720     0.2680     2.1960 c3         1 BYS      -0.023100
      6 C6          -1.1430     0.0570     3.6830 ca         1 BYS      -0.014300
      7 C7          -1.0120     1.1150     4.5800 ca         1 BYS      -0.098500
      8 C8          -1.0660     0.8980     5.9520 ca         1 BYS      -0.128500
      9 C9          -1.2460    -0.3840     6.4520 ca         1 BYS      -0.151000
     10 C10         -1.3720    -1.4490     5.5690 ca         1 BYS      -0.128500
     11 C11         -1.3220    -1.2260     4.2000 ca         1 BYS      -0.098500
     12 C12          0.3950     0.1540     0.1000 c3         1 BYS      -0.168700
     13 C13          1.8400    -0.0990    -0.3760 c          1 BYS       0.735000
     14 O14          2.2470    -1.2780    -0.3090 o          1 BYS      -0.744500
     15 O15          2.4970     0.8810    -0.7800 o          1 BYS      -0.744500
     16 C16         -0.5700    -0.7950    -0.6230 c3         1 BYS      -0.021100
     17 C17         -0.4770    -0.6920    -2.1210 ca         1 BYS      -0.008300
     18 C18         -1.0350     0.4240    -2.7700 ca         1 BYS      -0.085000
     19 C19         -0.9030     0.5000    -4.1330 ca         1 BYS       0.030100
     20 O20         -1.3750     1.4540    -4.9800 os         1 BYS      -0.362100
     21 C21         -0.7780     1.1790    -6.2390 c5         1 BYS       0.378600
     22 O22         -0.3040    -0.1580    -6.1890 os         1 BYS      -0.371100
     23 C23         -0.2530    -0.4780    -4.8670 ca         1 BYS       0.006100
     24 C24          0.2930    -1.5820    -4.2630 ca         1 BYS      -0.102000
     25 C25          0.1700    -1.6660    -2.8700 ca         1 BYS      -0.089000
     26 HC11         0.6070    -1.0290     1.8750 hc         1 BYS       0.045700
     27 HC51        -1.3740     1.2880     1.9470 hc         1 BYS       0.022200
     28 HC52        -1.7970    -0.3970     1.7220 hc         1 BYS       0.022200
     29 HC71        -0.8580     2.1170     4.1990 ha         1 BYS       0.121000
     30 HC81        -0.9680     1.7350     6.6320 ha         1 BYS       0.081000
     31 HC91        -1.2890    -0.5520     7.5210 ha         1 BYS       0.075000
     32 H101        -1.5160    -2.4540     5.9460 ha         1 BYS       0.081000
     33 H111        -1.4260    -2.0630     3.5180 ha         1 BYS       0.121000
     34 H121         0.1140     1.1830    -0.1450 hc         1 BYS       0.044700
     35 H161        -0.3640    -1.8210    -0.3100 hc         1 BYS       0.023700
     36 H162        -1.5970    -0.5740    -0.3240 hc         1 BYS       0.023700
     37 H181        -1.5520     1.1940    -2.2110 ha         1 BYS       0.130000
     38 H211         0.0610     1.8650    -6.4100 h2         1 BYS       0.038200
     39 H212        -1.5200     1.2800    -7.0300 h2         1 BYS       0.038200
     40 H241         0.7950    -2.3540    -4.8300 ha         1 BYS       0.107000
     41 H251         0.6040    -2.5140    -2.3580 ha         1 BYS       0.139000
@<TRIPOS>BOND
     1     1     2 1   
     2     1     5 1   
     3     1    12 1   
     4     1    26 1   
     5     2     3 1   
     6     2     4 1   
     7     5     6 1   
     8     5    27 1   
     9     5    28 1   
    10     6     7 ar  
    11     6    11 ar  
    12     7     8 ar  
    13     7    29 1   
    14     8     9 ar  
    15     8    30 1   
    16     9    10 ar  
    17     9    31 1   
    18    10    11 ar  
    19    10    32 1   
    20    11    33 1   
    21    12    13 1   
    22    12    16 1   
    23    12    34 1   
    24    13    14 1   
    25    13    15 1   
    26    16    17 1   
    27    16    35 1   
    28    16    36 1   
    29    17    18 ar  
    30    17    25 ar  
    31    18    19 ar  
    32    18    37 1   
    33    19    20 1   
    34    19    23 ar  
    35    20    21 1   
    36    21    22 1   
    37    21    38 1   
    38    21    39 1   
    39    22    23 1   
    40    23    24 ar  
    41    24    25 ar  
    42    24    40 1   
    43    25    41 1   
@<TRIPOS>SUBSTRUCTURE
     1 BYS         1 TEMP              0 ****  ****    0 ROOT
