@<TRIPOS>MOLECULE
BYT
   52    53     1     0     0
SMALL
bcc


@<TRIPOS>ATOM
      1 N01         -8.7680     1.0220     0.9220 n8         1 BYT      -0.889800
      2 C02         -8.5640     0.1460    -0.2230 c3         1 BYT       0.014500
      3 C03         -7.1730    -0.4880    -0.1530 c3         1 BYT      -0.051400
      4 C04         -6.0290     0.5170    -0.1570 c3         1 BYT      -0.071400
      5 C05         -4.6670    -0.1580    -0.0570 c3         1 BYT      -0.096400
      6 C06         -3.5270     0.8480    -0.0680 c3         1 BYT       0.100000
      7 N07         -2.2500     0.1740     0.0540 ns         1 BYT      -0.569900
      8 C08         -1.0830     0.8240     0.1630 c          1 BYT       0.661100
      9 O09         -1.0070     2.0460     0.1220 o          1 BYT      -0.617100
     10 C10          0.1300    -0.0580     0.3780 c3         1 BYT      -0.158400
     11 C11          1.3950     0.4820    -0.2730 c3         1 BYT      -0.064400
     12 C12          2.5940    -0.4180    -0.0070 c3         1 BYT      -0.079400
     13 C13          3.8810     0.1150    -0.6250 c3         1 BYT      -0.059400
     14 C14          5.0580    -0.8280    -0.4610 c5         1 BYT       0.026400
     15 S15          5.5200    -1.0870     1.2850 ss         1 BYT      -0.304200
     16 C16          7.0350    -1.9050     0.7280 c5         1 BYT      -0.022300
     17 C17          7.5560    -1.0890    -0.4600 c5         1 BYT       0.102700
     18 N18          8.4050     0.0090    -0.0790 ns         1 BYT      -0.592900
     19 C19          7.8640     1.2310    -0.3130 c          1 BYT       0.822500
     20 O20          8.3740     2.3120    -0.0610 o          1 BYT      -0.655500
     21 N21          6.6490     1.0290    -0.8920 ns         1 BYT      -0.574900
     22 C22          6.3550    -0.3610    -1.1350 c5         1 BYT       0.095700
     23 C23         -9.6220    -0.9710    -0.4010 c          1 BYT       0.901600
     24 O24        -10.3810    -1.2090     0.5600 o          1 BYT      -0.840300
     25 O25         -9.6120    -1.5640    -1.5000 o          1 BYT      -0.840300
     26 H1          -9.6700     1.4720     0.8280 hn         1 BYT       0.325800
     27 H2          -8.8680     0.4380     1.7460 hn         1 BYT       0.325800
     28 H4          -8.5950     0.7720    -1.1240 h1         1 BYT       0.038700
     29 H5          -7.1090    -1.1070     0.7510 hc         1 BYT       0.037700
     30 H6          -7.0580    -1.1720    -0.9980 hc         1 BYT       0.037700
     31 H7          -6.0760     1.1140    -1.0740 hc         1 BYT       0.041700
     32 H8          -6.1560     1.2180     0.6720 hc         1 BYT       0.041700
     33 H9          -4.6200    -0.7490     0.8640 hc         1 BYT       0.035700
     34 H10         -4.5420    -0.8610    -0.8860 hc         1 BYT       0.035700
     35 H11         -3.5570     1.4320    -0.9920 h1         1 BYT       0.049700
     36 H12         -3.6520     1.5560     0.7560 h1         1 BYT       0.049700
     37 H13         -2.2490    -0.8320     0.0860 hn         1 BYT       0.309500
     38 H14          0.2820    -0.1380     1.4600 hc         1 BYT       0.053200
     39 H15         -0.0690    -1.0730     0.0270 hc         1 BYT       0.053200
     40 H16          1.2430     0.5740    -1.3530 hc         1 BYT       0.054200
     41 H17          1.6010     1.4890     0.0980 hc         1 BYT       0.054200
     42 H18          2.7250    -0.5320     1.0750 hc         1 BYT       0.043700
     43 H19          2.3930    -1.4220    -0.3960 hc         1 BYT       0.043700
     44 H20          3.7240     0.2770    -1.6970 hc         1 BYT       0.054200
     45 H21          4.1230     1.0890    -0.1920 hc         1 BYT       0.054200
     46 H22          4.7970    -1.8050    -0.8820 h1         1 BYT       0.068700
     47 H23          7.7590    -1.9610     1.5410 h1         1 BYT       0.075200
     48 H24          6.8050    -2.9230     0.4100 h1         1 BYT       0.075200
     49 H25          8.0700    -1.7550    -1.1560 h1         1 BYT       0.066700
     50 H26          9.2250    -0.1070     0.4920 hn         1 BYT       0.339500
     51 H27          6.2170     1.7610    -1.4300 hn         1 BYT       0.338500
     52 H28          6.3020    -0.5720    -2.2060 h1         1 BYT       0.061700
@<TRIPOS>BOND
     1     1     2 1   
     2     1    26 1   
     3     1    27 1   
     4     2     3 1   
     5     2    23 1   
     6     2    28 1   
     7     3     4 1   
     8     3    29 1   
     9     3    30 1   
    10     4     5 1   
    11     4    31 1   
    12     4    32 1   
    13     5     6 1   
    14     5    33 1   
    15     5    34 1   
    16     6     7 1   
    17     6    35 1   
    18     6    36 1   
    19     7     8 1   
    20     7    37 1   
    21     8     9 2   
    22     8    10 1   
    23    10    11 1   
    24    10    38 1   
    25    10    39 1   
    26    11    12 1   
    27    11    40 1   
    28    11    41 1   
    29    12    13 1   
    30    12    42 1   
    31    12    43 1   
    32    13    14 1   
    33    13    44 1   
    34    13    45 1   
    35    14    15 1   
    36    14    22 1   
    37    14    46 1   
    38    15    16 1   
    39    16    17 1   
    40    16    47 1   
    41    16    48 1   
    42    17    18 1   
    43    17    22 1   
    44    17    49 1   
    45    18    19 1   
    46    18    50 1   
    47    19    20 2   
    48    19    21 1   
    49    21    22 1   
    50    21    51 1   
    51    22    52 1   
    52    23    24 1   
    53    23    25 1   
@<TRIPOS>SUBSTRUCTURE
     1 BYT         1 TEMP              0 ****  ****    0 ROOT
