@<TRIPOS>MOLECULE
BYT
   52    53     1     0     0
SMALL
No Charge or Current Charge


@<TRIPOS>ATOM
      1 N01         -8.5540     1.8170     0.3210 n8         1 BYT      -1.000200
      2 C02         -8.4750     0.3350     0.0430 c3         1 BYT       0.014500
      3 C03         -7.0550    -0.2140     0.3520 c3         1 BYT      -0.051400
      4 C04         -5.9320     0.3650    -0.5440 c3         1 BYT      -0.071400
      5 C05         -4.5460    -0.2530    -0.2520 c3         1 BYT      -0.096400
      6 C06         -3.4310     0.3240    -1.1480 c3         1 BYT       0.100000
      7 N07         -2.1310    -0.2920    -0.8780 ns         1 BYT      -0.502900
      8 C08         -1.3030     0.0410     0.1710 c          1 BYT       0.594100
      9 O09         -1.5880     0.9120     0.9810 o          1 BYT      -0.617100
     10 C10         -0.0140    -0.7840     0.2670 c3         1 BYT      -0.158400
     11 C11          1.2220     0.0420    -0.1610 c3         1 BYT      -0.064400
     12 C12          2.5390    -0.7600    -0.0830 c3         1 BYT      -0.079400
     13 C13          3.7770     0.0640    -0.5100 c3         1 BYT      -0.059400
     14 C14          5.1120    -0.7290    -0.4820 c5         1 BYT       0.074300
     15 S15          5.6060    -1.1750     1.2440 ss         1 BYT      -0.400000
     16 C16          7.2290    -1.7470     0.5620 c5         1 BYT       0.025600
     17 C17          7.6640    -0.6940    -0.5120 c5         1 BYT       0.102700
     18 N18          8.2770     0.3930     0.2560 ns         1 BYT      -0.525900
     19 C19          7.5290     1.5200     0.2670 c          1 BYT       0.613000
     20 O20          7.8080     2.5420     0.8630 o          1 BYT      -0.580000
     21 N21          6.4330     1.3390    -0.5050 ns         1 BYT      -0.507900
     22 C22          6.3640    -0.0020    -1.0980 c5         1 BYT       0.095700
     23 C23         -9.5740    -0.5630     0.7480 c          1 BYT       0.691000
     24 O24         -9.7630    -0.4190     1.9500 o          1 BYT      -0.735000
     25 O25        -10.2720    -1.2830     0.0470 o          1 BYT      -0.735000
     26 H1          -9.4870     2.1570     0.0570 hn         1 BYT       0.381000
     27 H2          -8.5370     1.9530     1.3390 hn         1 BYT       0.381000
     28 H4          -8.6360     0.2130    -1.0370 h1         1 BYT       0.038700
     29 H5          -6.8130    -0.0330     1.4070 hc         1 BYT       0.037700
     30 H6          -7.0710    -1.3040     0.2200 hc         1 BYT       0.037700
     31 H7          -6.1870     0.1920    -1.5970 hc         1 BYT       0.041700
     32 H8          -5.8730     1.4510    -0.4030 hc         1 BYT       0.041700
     33 H9          -4.2910    -0.0820     0.8010 hc         1 BYT       0.035700
     34 H10         -4.5970    -1.3390    -0.3990 hc         1 BYT       0.035700
     35 H11         -3.6840     0.1520    -2.2030 h1         1 BYT       0.049700
     36 H12         -3.3550     1.4090    -0.9930 h1         1 BYT       0.049700
     37 H13         -1.8100    -1.0310    -1.4930 hn         1 BYT       0.309500
     38 H14          0.1230    -1.1010     1.3070 hc         1 BYT       0.053200
     39 H15         -0.0840    -1.6650    -0.3830 hc         1 BYT       0.053200
     40 H16          1.0770     0.4020    -1.1870 hc         1 BYT       0.054200
     41 H17          1.3020     0.9300     0.4800 hc         1 BYT       0.054200
     42 H18          2.6770    -1.1210     0.9440 hc         1 BYT       0.043700
     43 H19          2.4590    -1.6470    -0.7240 hc         1 BYT       0.043700
     44 H20          3.6080     0.4390    -1.5270 hc         1 BYT       0.054200
     45 H21          3.8490     0.9450     0.1390 hc         1 BYT       0.054200
     46 H22          4.9500    -1.6660    -1.0330 h1         1 BYT       0.068700
     47 H23          7.9720    -1.8700     1.3620 h1         1 BYT       0.075200
     48 H24          7.0810    -2.7290     0.0930 h1         1 BYT       0.075200
     49 H25          8.3310    -1.1080    -1.2820 h1         1 BYT       0.066700
     50 H26          9.1360     0.3590     0.7890 hn         1 BYT       0.339500
     51 H27          5.7680     2.0930    -0.6120 hn         1 BYT       0.338500
     52 H28          6.3480     0.0230    -2.1960 h1         1 BYT       0.061700
@<TRIPOS>BOND
     1     1     2 1   
     2     1    26 1   
     3     1    27 1   
     4     2     3 1   
     5     2    23 1   
     6     2    28 1   
     7     3     4 1   
     8     3    29 1   
     9     3    30 1   
    10     4     5 1   
    11     4    31 1   
    12     4    32 1   
    13     5     6 1   
    14     5    33 1   
    15     5    34 1   
    16     6     7 1   
    17     6    35 1   
    18     6    36 1   
    19     7     8 1   
    20     7    37 1   
    21     8     9 2   
    22     8    10 1   
    23    10    11 1   
    24    10    38 1   
    25    10    39 1   
    26    11    12 1   
    27    11    40 1   
    28    11    41 1   
    29    12    13 1   
    30    12    42 1   
    31    12    43 1   
    32    13    14 1   
    33    13    44 1   
    34    13    45 1   
    35    14    15 1   
    36    14    22 1   
    37    14    46 1   
    38    15    16 1   
    39    16    17 1   
    40    16    47 1   
    41    16    48 1   
    42    17    18 1   
    43    17    22 1   
    44    17    49 1   
    45    18    19 1   
    46    18    50 1   
    47    19    20 2   
    48    19    21 1   
    49    21    22 1   
    50    21    51 1   
    51    22    52 1   
    52    23    24 1   
    53    23    25 1   
@<TRIPOS>SUBSTRUCTURE
     1 BYT         1 TEMP              0 ****  ****    0 ROOT
