@<TRIPOS>MOLECULE
BYU
   62    65     1     0     0
SMALL
bcc


@<TRIPOS>ATOM
      1 C4          45.2150     0.2510    82.7200 cp         1 BYU       0.573800
      2 C5          44.1550     0.7830    83.4360 ca         1 BYU      -0.431600
      3 C6          44.2650     2.1080    83.8710 ca         1 BYU       0.709200
      4 N1          45.3220     2.8610    83.5460 nb         1 BYU      -0.800000
      5 N3          46.2700     1.0240    82.4040 nb         1 BYU      -0.795000
      6 CAX         46.4490     0.0910    86.3230 c2         1 BYU      -0.163000
      7 CAW         45.5180    -0.7620    86.7380 ce         1 BYU      -0.229200
      8 CAV         44.0600    -0.6200    86.4960 c          1 BYU       0.673300
      9 OAY         43.3620    -1.6030    86.3170 o          1 BYU      -0.584100
     10 CAN         42.2970     1.0280    86.0640 ca         1 BYU       0.056600
     11 CAO         41.1570     0.4000    86.5510 ca         1 BYU      -0.118000
     12 CAP         39.9080     0.8460    86.1500 ca         1 BYU      -0.111000
     13 CAQ         39.7870     1.9160    85.2750 ca         1 BYU      -0.131000
     14 CAR         40.9130     2.5480    84.7610 ca         1 BYU      -0.066300
     15 CAT         40.7930     3.6850    83.7910 c3         1 BYU      -0.049800
     16 CAM         42.1720     2.0840    85.1520 ca         1 BYU       0.094600
     17 NAS         43.3290     2.7070    84.6440 nu         1 BYU      -0.768300
     18 C2          46.2510     2.2780    82.8160 ca         1 BYU       0.702900
     19 CAD         45.2160    -1.1500    82.2680 cp         1 BYU      -0.362800
     20 CAE         44.2970    -2.0560    82.7910 ca         1 BYU      -0.023000
     21 CAF         44.2210    -3.3560    82.3260 ca         1 BYU      -0.320300
     22 CAA         45.0840    -3.7130    81.3030 ca         1 BYU       0.479200
     23 NAB         45.9960    -2.9000    80.8020 nb         1 BYU      -0.750000
     24 CAC         46.1100    -1.6640    81.2840 ca         1 BYU       0.741200
     25 NBF         47.1190    -0.9100    80.7790 nu         1 BYU      -0.766300
     26 CBE         47.9960    -1.3460    79.7870 ca         1 BYU       0.250600
     27 CAZ         48.9440    -2.3330    80.0400 ca         1 BYU      -0.054600
     28 CLH         49.0640    -3.0400    81.6040 cl         1 BYU      -0.076400
     29 CBD         47.9650    -0.7490    78.5300 ca         1 BYU      -0.054600
     30 CLG         46.7990     0.4750    78.1910 cl         1 BYU      -0.076400
     31 CBC         48.8620    -1.1280    77.5300 ca         1 BYU       0.195600
     32 OBK         48.7600    -0.4920    76.3600 os         1 BYU      -0.297400
     33 CBL         49.6580    -0.8310    75.3170 c3         1 BYU       0.125700
     34 CBB         49.7840    -2.1360    77.7920 ca         1 BYU      -0.308000
     35 CBA         49.8290    -2.7450    79.0430 ca         1 BYU       0.195600
     36 OBI         50.6920    -3.7110    79.3700 os         1 BYU      -0.297400
     37 CBJ         51.6130    -4.1660    78.3940 c3         1 BYU       0.125700
     38 H1          43.2600     0.2150    83.6390 ha         1 BYU       0.167000
     39 H2          46.2220     1.0090    85.7960 ha         1 BYU       0.121000
     40 H3          47.4980    -0.1160    86.4840 ha         1 BYU       0.121000
     41 H5          45.8070    -1.6900    87.2160 ha         1 BYU       0.154000
     42 H7          44.2420     1.4010    86.6350 hn         1 BYU       0.328500
     43 H8          41.2420    -0.4080    87.2610 ha         1 BYU       0.158000
     44 H9          39.0210     0.3610    86.5340 ha         1 BYU       0.139000
     45 H10         38.8040     2.2600    84.9810 ha         1 BYU       0.137000
     46 H11         41.2470     4.6010    84.1750 hc         1 BYU       0.047700
     47 H12         41.2900     3.4540    82.8470 hc         1 BYU       0.047700
     48 H13         39.7490     3.9030    83.5750 hc         1 BYU       0.047700
     49 H14         43.4440     3.7010    84.7830 hn         1 BYU       0.457800
     50 H15         47.0970     2.8930    82.5280 h5         1 BYU       0.047100
     51 H16         43.6330    -1.7550    83.5900 ha         1 BYU       0.146000
     52 H17         43.5120    -4.0610    82.7330 ha         1 BYU       0.148000
     53 H18         45.0410    -4.7060    80.8690 h4         1 BYU       0.017100
     54 H19         47.1610     0.0530    81.1130 hn         1 BYU       0.504800
     55 H20         49.4110    -0.1820    74.4810 h1         1 BYU       0.043700
     56 H21         50.6970    -0.6560    75.6060 h1         1 BYU       0.043700
     57 H22         49.5440    -1.8710    75.0020 h1         1 BYU       0.043700
     58 H23         50.4730    -2.4450    77.0190 ha         1 BYU       0.143000
     59 H24         52.1920    -4.9540    78.8670 h1         1 BYU       0.043700
     60 H25         51.1050    -4.5770    77.5190 h1         1 BYU       0.043700
     61 H26         52.2920    -3.3720    78.0750 h1         1 BYU       0.043700
     62 NAU         43.5840     0.6520    86.4780 ns         1 BYU      -0.482100
@<TRIPOS>BOND
     1     1     2 ar  
     2     1     5 ar  
     3     1    19 1   
     4     2     3 ar  
     5     2    38 1   
     6     3     4 ar  
     7     3    17 1   
     8     4    18 ar  
     9     5    18 ar  
    10     6     7 2   
    11     6    39 1   
    12     6    40 1   
    13     7     8 1   
    14     7    41 1   
    15     8     9 2   
    16     8    62 1   
    17    10    11 ar  
    18    10    16 ar  
    19    10    62 1   
    20    11    12 ar  
    21    11    43 1   
    22    12    13 ar  
    23    12    44 1   
    24    13    14 ar  
    25    13    45 1   
    26    14    15 1   
    27    14    16 ar  
    28    15    46 1   
    29    15    47 1   
    30    15    48 1   
    31    16    17 1   
    32    17    49 1   
    33    18    50 1   
    34    19    20 ar  
    35    19    24 ar  
    36    20    21 ar  
    37    20    51 1   
    38    21    22 ar  
    39    21    52 1   
    40    22    23 ar  
    41    22    53 1   
    42    23    24 ar  
    43    24    25 1   
    44    25    26 1   
    45    25    54 1   
    46    26    27 ar  
    47    26    29 ar  
    48    27    28 1   
    49    27    35 ar  
    50    29    30 1   
    51    29    31 ar  
    52    31    32 1   
    53    31    34 ar  
    54    32    33 1   
    55    33    55 1   
    56    33    56 1   
    57    33    57 1   
    58    34    35 ar  
    59    34    58 1   
    60    35    36 1   
    61    36    37 1   
    62    37    59 1   
    63    37    60 1   
    64    37    61 1   
    65    42    62 1   
@<TRIPOS>SUBSTRUCTURE
     1 BYU         1 TEMP              0 ****  ****    0 ROOT
