@<TRIPOS>MOLECULE
BYU
   62    65     1     0     0
SMALL
No Charge or Current Charge


@<TRIPOS>ATOM
      1 C4          45.6600    -0.0520    83.1240 cp         1 BYU       0.245500
      2 C5          44.4780     0.5610    83.5920 ca         1 BYU      -0.283000
      3 C6          44.5430     1.8930    84.0130 ca         1 BYU       0.380900
      4 N1          45.6790     2.5980    83.9530 nb         1 BYU      -0.274000
      5 N3          46.8040     0.6610    83.0750 nb         1 BYU      -0.269000
      6 CAX         45.7580    -0.4640    86.9440 c2         1 BYU      -0.263000
      7 CAW         44.6410    -1.1510    87.3050 ce         1 BYU      -0.279200
      8 CAV         43.2240    -0.7770    87.0040 c          1 BYU       0.606300
      9 OAY         42.2980    -1.4870    87.3730 o          1 BYU      -0.584100
     10 CAN         41.9350     1.0780    85.7570 ca         1 BYU      -0.036000
     11 CAO         40.6150     0.7250    86.1170 ca         1 BYU      -0.100000
     12 CAP         39.5240     1.4530    85.6240 ca         1 BYU      -0.093000
     13 CAQ         39.7320     2.5490    84.7770 ca         1 BYU      -0.113000
     14 CAR         41.0360     2.9250    84.4050 ca         1 BYU      -0.066300
     15 CAT         41.2220     4.1240    83.4760 c3         1 BYU      -0.049800
     16 CAM         42.1460     2.1810    84.8810 ca         1 BYU       0.233000
     17 NAS         43.4440     2.5760    84.5040 nu         1 BYU      -0.961900
     18 C2          46.7610     1.9450    83.4850 ca         1 BYU       0.176900
     19 CAD         45.6890    -1.4900    82.7120 cp         1 BYU      -0.297500
     20 CAE         44.8930    -2.4300    83.4090 ca         1 BYU      -0.005000
     21 CAF         44.9160    -3.7700    83.0060 ca         1 BYU      -0.237000
     22 CAA         45.7150    -4.1420    81.9190 ca         1 BYU       0.413900
     23 NAB         46.4760    -3.2640    81.2390 nb         1 BYU      -0.750000
     24 CAC         46.4730    -1.9910    81.6420 ca         1 BYU       0.675900
     25 NBF         47.2360    -1.1820    80.8430 nu         1 BYU      -0.959900
     26 CBE         48.0580    -1.4410    79.7320 ca         1 BYU       0.389000
     27 CAZ         49.2190    -2.2490    79.8380 ca         1 BYU       0.037000
     28 ClH         49.7350    -2.9160    81.4030 cl         1 BYU      -0.168000
     29 CBD         47.7360    -0.8450    78.4910 ca         1 BYU       0.037000
     30 ClG         46.3120     0.2070    78.3490 cl         1 BYU      -0.168000
     31 CBC         48.5340    -1.0870    77.3560 ca         1 BYU       0.195600
     32 OBK         48.1720    -0.4940    76.1600 os         1 BYU      -0.320600
     33 CBL         48.9180    -0.6770    74.9440 c3         1 BYU       0.148900
     34 CBB         49.6700    -1.9150    77.4600 ca         1 BYU      -0.290000
     35 CBA         50.0170    -2.4890    78.7010 ca         1 BYU       0.195600
     36 OBI         51.1420    -3.2830    78.8440 os         1 BYU      -0.320600
     37 CBJ         52.0260    -3.5870    77.7510 c3         1 BYU       0.148900
     38 H1          43.5400     0.0180    83.6120 ha         1 BYU       0.149000
     39 H2          45.7330     0.4690    86.3810 ha         1 BYU       0.171000
     40 H3          46.7530    -0.8260    87.2110 ha         1 BYU       0.171000
     41 H5          44.7360    -2.0790    87.8690 ha         1 BYU       0.204000
     42 H7          43.9450     0.8470    86.0430 hn         1 BYU       0.162000
     43 H8          40.4140    -0.1010    86.7920 ha         1 BYU       0.140000
     44 H9          38.5120     1.1730    85.9100 ha         1 BYU       0.121000
     45 H10         38.8740     3.1080    84.4100 ha         1 BYU       0.119000
     46 H11         41.7560     4.9370    83.9820 hc         1 BYU       0.047700
     47 H12         41.7940     3.8470    82.5820 hc         1 BYU       0.047700
     48 H13         40.2620     4.5280    83.1330 hc         1 BYU       0.047700
     49 H14         43.5590     3.5870    84.4280 hn         1 BYU       0.513000
     50 H15         47.6920     2.5070    83.4360 h5         1 BYU       0.047100
     51 H16         44.2780    -2.1310    84.2550 ha         1 BYU       0.128000
     52 H17         44.3200    -4.5170    83.5230 ha         1 BYU       0.130000
     53 H18         45.7440    -5.1770    81.5790 h4         1 BYU       0.017100
     54 H19         46.9480    -0.2130    80.9270 hn         1 BYU       0.560000
     55 H20         48.4510    -0.1160    74.1240 h1         1 BYU       0.043700
     56 H21         49.9480    -0.3140    75.0590 h1         1 BYU       0.043700
     57 H22         48.9460    -1.7360    74.6580 h1         1 BYU       0.043700
     58 H23         50.2850    -2.1010    76.5870 ha         1 BYU       0.125000
     59 H24         52.8450    -4.2300    78.0930 h1         1 BYU       0.043700
     60 H25         51.4910    -4.1150    76.9520 h1         1 BYU       0.043700
     61 H26         52.4640    -2.6700    77.3370 h1         1 BYU       0.043700
     62 NAU         43.0720     0.3950    86.2790 ns         1 BYU      -0.156000
@<TRIPOS>BOND
     1     1     2 ar  
     2     1     5 ar  
     3     1    19 1   
     4     2     3 ar  
     5     2    38 1   
     6     3     4 ar  
     7     3    17 1   
     8     4    18 ar  
     9     5    18 ar  
    10     6     7 2   
    11     6    39 1   
    12     6    40 1   
    13     7     8 1   
    14     7    41 1   
    15     8     9 2   
    16     8    62 1   
    17    10    11 ar  
    18    10    16 ar  
    19    10    62 1   
    20    11    12 ar  
    21    11    43 1   
    22    12    13 ar  
    23    12    44 1   
    24    13    14 ar  
    25    13    45 1   
    26    14    15 1   
    27    14    16 ar  
    28    15    46 1   
    29    15    47 1   
    30    15    48 1   
    31    16    17 1   
    32    17    49 1   
    33    18    50 1   
    34    19    20 ar  
    35    19    24 ar  
    36    20    21 ar  
    37    20    51 1   
    38    21    22 ar  
    39    21    52 1   
    40    22    23 ar  
    41    22    53 1   
    42    23    24 ar  
    43    24    25 1   
    44    25    26 1   
    45    25    54 1   
    46    26    27 ar  
    47    26    29 ar  
    48    27    28 1   
    49    27    35 ar  
    50    29    30 1   
    51    29    31 ar  
    52    31    32 1   
    53    31    34 ar  
    54    32    33 1   
    55    33    55 1   
    56    33    56 1   
    57    33    57 1   
    58    34    35 ar  
    59    34    58 1   
    60    35    36 1   
    61    36    37 1   
    62    37    59 1   
    63    37    60 1   
    64    37    61 1   
    65    42    62 1   
@<TRIPOS>SUBSTRUCTURE
     1 BYU         1 TEMP              0 ****  ****    0 ROOT
