@<TRIPOS>MOLECULE
BYV
   47    48     1     0     0
SMALL
No Charge or Current Charge


@<TRIPOS>ATOM
      1 N17          2.1930    -5.3330     0.1780 n1         1 BYV      -0.457000
      2 C17          2.0010    -4.1810     0.2130 cg         1 BYV       0.326000
      3 C13          1.7540    -2.7660     0.2580 ca         1 BYV      -0.018000
      4 C14          2.7830    -1.8810     0.6300 ca         1 BYV      -0.073000
      5 C15          2.5450    -0.4940     0.6780 ca         1 BYV      -0.079300
      6 C18          3.6610     0.4630     1.0770 c3         1 BYV      -0.032100
      7 C19          4.4730     0.9480    -0.1430 c3         1 BYV      -0.078400
      8 C20          5.6080     1.9180     0.2390 c3         1 BYV       0.154800
      9 N21          6.3410     2.3490    -0.9660 n7         1 BYV      -0.855400
     10 C22          7.4440     3.2980    -0.7220 c3         1 BYV       0.143100
     11 C12          0.4810    -2.2600    -0.0680 ca         1 BYV      -0.073000
     12 C11          0.2350    -0.8750    -0.0270 ca         1 BYV      -0.079300
     13 C16          1.2700     0.0030     0.3480 ca         1 BYV      -0.083000
     14 C09         -1.1430    -0.3290    -0.3760 c3         1 BYV      -0.029100
     15 C08         -2.0530    -0.2160     0.8660 c3         1 BYV      -0.124700
     16 C06         -3.4400     0.3070     0.5260 ca         1 BYV       0.396300
     17 N01         -3.6650     1.6210     0.7520 nb         1 BYV      -0.754000
     18 C02         -4.8690     2.0820     0.4510 ca         1 BYV       0.601900
     19 N02         -4.9630     3.3870     0.7110 nv         1 BYV      -1.055900
     20 C03         -5.9130     1.3230    -0.0830 ca         1 BYV      -0.231000
     21 C04         -5.6900    -0.0410    -0.3210 ca         1 BYV       0.002700
     22 C05         -4.4200    -0.5510    -0.0070 ca         1 BYV      -0.215000
     23 C07         -6.7770    -0.9300    -0.9030 c3         1 BYV      -0.053800
     24 H1           3.7690    -2.2690     0.8810 ha         1 BYV       0.124000
     25 H2           3.2420     1.3320     1.5990 hc         1 BYV       0.049200
     26 H3           4.3380    -0.0240     1.7910 hc         1 BYV       0.049200
     27 H4           4.8960     0.0770    -0.6590 hc         1 BYV       0.050700
     28 H5           3.7950     1.4430    -0.8490 hc         1 BYV       0.050700
     29 H6           5.1770     2.7880     0.7540 h1         1 BYV       0.028200
     30 H7           6.2890     1.4170     0.9410 h1         1 BYV       0.028200
     31 H8           6.7330     1.5120    -1.4170 hn         1 BYV       0.405000
     32 H10          7.0730     4.2160    -0.2480 h1         1 BYV       0.029700
     33 H11          8.2040     2.8540    -0.0630 h1         1 BYV       0.029700
     34 H12          7.9310     3.5750    -1.6660 h1         1 BYV       0.029700
     35 H13         -0.3170    -2.9430    -0.3530 ha         1 BYV       0.124000
     36 H14          1.0830     1.0740     0.3830 ha         1 BYV       0.121000
     37 H15         -1.0510     0.6590    -0.8440 hc         1 BYV       0.058200
     38 H16         -1.6260    -0.9730    -1.1210 hc         1 BYV       0.058200
     39 H17         -2.1400    -1.2030     1.3360 hc         1 BYV       0.057200
     40 H18         -1.5690     0.4320     1.6070 hc         1 BYV       0.057200
     41 H19         -4.0760     3.8510     0.8650 hn         1 BYV       0.469000
     42 H20         -5.6720     3.9160     0.2150 hn         1 BYV       0.469000
     43 H21         -6.8710     1.7820    -0.3050 ha         1 BYV       0.119000
     44 H22         -4.1890    -1.6000    -0.1750 ha         1 BYV       0.122000
     45 H23         -6.7090    -0.9630    -1.9960 hc         1 BYV       0.047033
     46 H24         -6.6920    -1.9580    -0.5290 hc         1 BYV       0.047033
     47 H25         -7.7760    -0.5640    -0.6390 hc         1 BYV       0.047033
@<TRIPOS>BOND
     1     1     2 3   
     2     2     3 1   
     3     3     4 ar  
     4     3    11 ar  
     5     4     5 ar  
     6     4    24 1   
     7     5     6 1   
     8     5    13 ar  
     9     6     7 1   
    10     6    25 1   
    11     6    26 1   
    12     7     8 1   
    13     7    27 1   
    14     7    28 1   
    15     8     9 1   
    16     8    29 1   
    17     8    30 1   
    18     9    10 1   
    19     9    31 1   
    20    10    32 1   
    21    10    33 1   
    22    10    34 1   
    23    11    12 ar  
    24    11    35 1   
    25    12    13 ar  
    26    12    14 1   
    27    13    36 1   
    28    14    15 1   
    29    14    37 1   
    30    14    38 1   
    31    15    16 1   
    32    15    39 1   
    33    15    40 1   
    34    16    17 ar  
    35    16    22 ar  
    36    17    18 ar  
    37    18    19 1   
    38    18    20 ar  
    39    19    41 1   
    40    19    42 1   
    41    20    21 ar  
    42    20    43 1   
    43    21    22 ar  
    44    21    23 1   
    45    22    44 1   
    46    23    45 1   
    47    23    46 1   
    48    23    47 1   
@<TRIPOS>SUBSTRUCTURE
     1 BYV         1 TEMP              0 ****  ****    0 ROOT
