@<TRIPOS>MOLECULE
BYV
   47    48     1     0     0
SMALL
abcg2


@<TRIPOS>ATOM
      1 N17          2.2640    -5.3480    -0.3760 n1         1 BYV      -0.457000
      2 C17          2.0550    -4.2230    -0.2400 cg         1 BYV       0.326000
      3 C13          1.7960    -2.8290    -0.0730 ca         1 BYV      -0.018000
      4 C14          2.8040    -1.9970     0.4140 ca         1 BYV      -0.073000
      5 C15          2.5570    -0.6410     0.5790 ca         1 BYV      -0.079300
      6 C18          3.6370     0.2890     1.0550 c3         1 BYV      -0.032100
      7 C19          4.3680     0.9600    -0.1080 c3         1 BYV      -0.078400
      8 C20          5.4300     1.9330     0.3780 c3         1 BYV       0.154800
      9 N21          6.1080     2.5750    -0.7310 n7         1 BYV      -0.855400
     10 C22          7.1310     3.5020    -0.2930 c3         1 BYV       0.143100
     11 C12          0.5400    -2.3210    -0.4000 ca         1 BYV      -0.073000
     12 C11          0.2820    -0.9660    -0.2410 ca         1 BYV      -0.079300
     13 C16          1.2970    -0.1480     0.2480 ca         1 BYV      -0.083000
     14 C09         -1.0770    -0.4030    -0.5400 c3         1 BYV      -0.029100
     15 C08         -1.9640    -0.3820     0.7130 c3         1 BYV      -0.124700
     16 C06         -3.3100     0.2240     0.4340 ca         1 BYV       0.396300
     17 N01         -3.3260     1.5390     0.2070 nb         1 BYV      -0.754000
     18 C02         -4.4860     2.1240    -0.0670 ca         1 BYV       0.601900
     19 N02         -4.4750     3.4780    -0.2420 nv         1 BYV      -1.055900
     20 C03         -5.6930     1.4050    -0.1320 ca         1 BYV      -0.231000
     21 C04         -5.6770     0.0450     0.0970 ca         1 BYV       0.002700
     22 C05         -4.4490    -0.5590     0.3910 ca         1 BYV      -0.215000
     23 C07         -6.9290    -0.7740     0.0230 c3         1 BYV      -0.053800
     24 H1           3.7730    -2.4110     0.6620 ha         1 BYV       0.124000
     25 H2           3.1970     1.0580     1.6950 hc         1 BYV       0.049200
     26 H3           4.3540    -0.2590     1.6700 hc         1 BYV       0.049200
     27 H4           4.8300     0.1930    -0.7370 hc         1 BYV       0.050700
     28 H5           3.6500     1.4930    -0.7370 hc         1 BYV       0.050700
     29 H6           4.9540     2.7110     0.9850 h1         1 BYV       0.028200
     30 H7           6.1270     1.4070     1.0520 h1         1 BYV       0.028200
     31 H8           6.5420     1.8600    -1.3020 hn         1 BYV       0.405000
     32 H10          6.6720     4.3310     0.2500 h1         1 BYV       0.029700
     33 H11          7.8860     3.0590     0.3710 h1         1 BYV       0.029700
     34 H12          7.6480     3.9210    -1.1560 h1         1 BYV       0.029700
     35 H13         -0.2300    -2.9830    -0.7750 ha         1 BYV       0.124000
     36 H14          1.1010     0.9120     0.3760 ha         1 BYV       0.121000
     37 H15         -0.9830     0.6130    -0.9280 hc         1 BYV       0.058200
     38 H16         -1.5630    -0.9990    -1.3160 hc         1 BYV       0.058200
     39 H17         -2.0830    -1.3990     1.0920 hc         1 BYV       0.057200
     40 H18         -1.4620     0.1970     1.4940 hc         1 BYV       0.057200
     41 H19         -3.5840     3.8920    -0.4620 hn         1 BYV       0.469000
     42 H20         -5.2520     3.8930    -0.7290 hn         1 BYV       0.469000
     43 H21         -6.6190     1.9190    -0.3610 ha         1 BYV       0.119000
     44 H22         -4.3870    -1.6230     0.5790 ha         1 BYV       0.122000
     45 H23         -6.8970    -1.4450    -0.8370 hc         1 BYV       0.047033
     46 H24         -7.0400    -1.3980     0.9100 hc         1 BYV       0.047033
     47 H25         -7.8170    -0.1510    -0.0710 hc         1 BYV       0.047033
@<TRIPOS>BOND
     1     1     2 3   
     2     2     3 1   
     3     3     4 ar  
     4     3    11 ar  
     5     4     5 ar  
     6     4    24 1   
     7     5     6 1   
     8     5    13 ar  
     9     6     7 1   
    10     6    25 1   
    11     6    26 1   
    12     7     8 1   
    13     7    27 1   
    14     7    28 1   
    15     8     9 1   
    16     8    29 1   
    17     8    30 1   
    18     9    10 1   
    19     9    31 1   
    20    10    32 1   
    21    10    33 1   
    22    10    34 1   
    23    11    12 ar  
    24    11    35 1   
    25    12    13 ar  
    26    12    14 1   
    27    13    36 1   
    28    14    15 1   
    29    14    37 1   
    30    14    38 1   
    31    15    16 1   
    32    15    39 1   
    33    15    40 1   
    34    16    17 ar  
    35    16    22 ar  
    36    17    18 ar  
    37    18    19 1   
    38    18    20 ar  
    39    19    41 1   
    40    19    42 1   
    41    20    21 ar  
    42    20    43 1   
    43    21    22 ar  
    44    21    23 1   
    45    22    44 1   
    46    23    45 1   
    47    23    46 1   
    48    23    47 1   
@<TRIPOS>SUBSTRUCTURE
     1 BYV         1 TEMP              0 ****  ****    0 ROOT
