@<TRIPOS>MOLECULE
BYW
   44    45     1     0     0
SMALL
No Charge or Current Charge


@<TRIPOS>ATOM
      1 C13         14.3600   119.6560    13.4000 ca         1 BYW      -0.102300
      2 C15         14.4640   121.0400    15.4070 ca         1 BYW      -0.092000
      3 C17         13.2170   120.4110    17.5280 cp         1 BYW       0.007000
      4 C21         12.4700   120.9050    20.2290 ca         1 BYW       0.089000
      5 C26         13.1440   119.0050    15.4150 ca         1 BYW      -0.092000
      6 C02         16.9050   118.0570    12.2080 c          1 BYW       0.568100
      7 C03         17.5950   116.6450    12.0450 c3         1 BYW       0.119000
      8 C04         16.7480   115.6370    11.2220 c3         1 BYW      -0.103600
      9 C06         17.8910   116.0610    13.4470 c3         1 BYW      -0.103600
     10 C08         14.7650   119.3910    11.9500 c3         1 BYW       0.083000
     11 C09         13.5230   119.3200    11.0130 c          1 BYW       0.600100
     12 C14         14.8340   120.7960    14.0730 ca         1 BYW      -0.085500
     13 C16         13.6110   120.1510    16.1060 cp         1 BYW      -0.033000
     14 C18         14.1230   121.0090    18.4410 ca         1 BYW      -0.139000
     15 C19         13.7530   121.2520    19.7750 ca         1 BYW       0.161000
     16 C23         11.5580   120.3120    19.3390 ca         1 BYW       0.161000
     17 C25         11.9270   120.0670    18.0060 ca         1 BYW      -0.139000
     18 C27         13.5140   118.7590    14.0820 ca         1 BYW      -0.085500
     19 F20         14.6440   121.8200    20.6190 f          1 BYW      -0.154000
     20 F22         12.1140   121.1400    21.5160 f          1 BYW      -0.141000
     21 F24         10.3170   119.9750    19.7590 f          1 BYW      -0.154000
     22 N07         15.5740   118.1570    11.8530 ns         1 BYW      -0.487900
     23 N10         12.7610   120.4840    10.9590 ns         1 BYW      -0.378400
     24 O01         17.5350   119.0390    12.5820 o          1 BYW      -0.607100
     25 O05         18.8600   116.7850    11.3640 oh         1 BYW      -0.652000
     26 O11         11.4450   120.4860    10.3510 oh         1 BYW      -0.415100
     27 O12         13.2280   118.3160    10.3710 o          1 BYW      -0.573100
     28 H1          14.8350   121.9360    15.8980 ha         1 BYW       0.120000
     29 H2          12.5010   118.2890    15.9200 ha         1 BYW       0.120000
     30 H3          15.8040   115.4020    11.7290 hc         1 BYW       0.048700
     31 H4          16.5210   116.0370    10.2260 hc         1 BYW       0.048700
     32 H5          17.2920   114.6940    11.0860 hc         1 BYW       0.048700
     33 H6          16.9610   115.9190    14.0110 hc         1 BYW       0.048700
     34 H7          18.3950   115.0890    13.3710 hc         1 BYW       0.048700
     35 H8          18.5360   116.7340    14.0260 hc         1 BYW       0.048700
     36 H9          15.3730   120.2300    11.5860 h1         1 BYW       0.083700
     37 H10         15.4940   121.4980    13.5660 ha         1 BYW       0.119500
     38 H11         15.1260   121.2750    18.1210 ha         1 BYW       0.143500
     39 H12         11.1980   119.6200    17.3360 ha         1 BYW       0.143500
     40 H13         13.1440   117.8670    13.5820 ha         1 BYW       0.119500
     41 H14         15.1230   117.3210    11.5000 hn         1 BYW       0.344500
     42 H15         12.9460   121.2270    11.6320 hn         1 BYW       0.343500
     43 H16         19.2670   117.6180    11.6960 ho         1 BYW       0.474000
     44 H17         11.4670   121.2680     9.7500 ho         1 BYW       0.447000
@<TRIPOS>BOND
     1     1    10 1   
     2     1    12 ar  
     3     1    18 ar  
     4     2    12 ar  
     5     2    13 ar  
     6     2    28 1   
     7     3    13 1   
     8     3    14 ar  
     9     3    17 ar  
    10     4    15 ar  
    11     4    16 ar  
    12     4    20 1   
    13     5    13 ar  
    14     5    18 ar  
    15     5    29 1   
    16     6     7 1   
    17     6    22 1   
    18     6    24 2   
    19     7     8 1   
    20     7     9 1   
    21     7    25 1   
    22     8    30 1   
    23     8    31 1   
    24     8    32 1   
    25     9    33 1   
    26     9    34 1   
    27     9    35 1   
    28    10    11 1   
    29    10    22 1   
    30    10    36 1   
    31    11    23 1   
    32    11    27 2   
    33    12    37 1   
    34    14    15 ar  
    35    14    38 1   
    36    15    19 1   
    37    16    17 ar  
    38    16    21 1   
    39    17    39 1   
    40    18    40 1   
    41    22    41 1   
    42    23    26 1   
    43    23    42 1   
    44    25    43 1   
    45    26    44 1   
@<TRIPOS>SUBSTRUCTURE
     1 BYW         1 TEMP              0 ****  ****    0 ROOT
