@<TRIPOS>MOLECULE
BYW
   44    45     1     0     0
SMALL
abcg2


@<TRIPOS>ATOM
      1 C13         14.3180   119.6780    13.4420 ca         1 BYW      -0.102300
      2 C15         14.0990   121.1900    15.3090 ca         1 BYW      -0.092000
      3 C17         13.3650   120.3860    17.5580 cp         1 BYW       0.007000
      4 C21         12.8550   120.7880    20.2710 ca         1 BYW       0.089000
      5 C26         13.5350   118.8780    15.5760 ca         1 BYW      -0.092000
      6 C02         16.7280   118.1310    12.2970 c          1 BYW       0.568100
      7 C03         17.4030   116.7520    12.2430 c3         1 BYW       0.119000
      8 C04         17.2900   116.1100    10.8630 c3         1 BYW      -0.103600
      9 C06         16.7520   115.8650    13.3110 c3         1 BYW      -0.103600
     10 C08         14.6960   119.4200    11.9960 c3         1 BYW       0.083000
     11 C09         13.4150   119.2570    11.1770 c          1 BYW       0.600100
     12 C14         14.4240   120.9530    13.9820 ca         1 BYW      -0.085500
     13 C16         13.6590   120.1530    16.1300 cp         1 BYW      -0.033000
     14 C18         14.1680   121.2460    18.3070 ca         1 BYW      -0.139000
     15 C19         13.9060   121.4350    19.6460 ca         1 BYW       0.161000
     16 C23         12.0620   119.9380    19.5220 ca         1 BYW       0.161000
     17 C25         12.3010   119.7320    18.1800 ca         1 BYW      -0.139000
     18 C27         13.8570   118.6440    14.2500 ca         1 BYW      -0.085500
     19 F20         14.6790   122.2380    20.3780 f          1 BYW      -0.154000
     20 F22         12.6180   120.9760    21.5670 f          1 BYW      -0.141000
     21 F24         11.0480   119.3200    20.1290 f          1 BYW      -0.154000
     22 N07         15.4730   118.2190    11.8330 ns         1 BYW      -0.487900
     23 N10         12.9700   120.4090    10.6600 ns         1 BYW      -0.378400
     24 O01         17.3170   119.0850    12.7840 o          1 BYW      -0.607100
     25 O05         18.7680   116.9320    12.5240 oh         1 BYW      -0.652000
     26 O11         11.7290   120.4710    10.1090 oh         1 BYW      -0.415100
     27 O12         12.8710   118.1780    11.0370 o          1 BYW      -0.573100
     28 H1          14.1880   122.1950    15.7010 ha         1 BYW       0.120000
     29 H2          13.2130   118.0480    16.1920 ha         1 BYW       0.120000
     30 H3          16.2620   115.8520    10.6110 hc         1 BYW       0.048700
     31 H4          17.6820   116.7650    10.0840 hc         1 BYW       0.048700
     32 H5          17.8640   115.1820    10.8490 hc         1 BYW       0.048700
     33 H6          15.6960   115.6870    13.1050 hc         1 BYW       0.048700
     34 H7          17.2550   114.8970    13.3380 hc         1 BYW       0.048700
     35 H8          16.8300   116.3180    14.3010 hc         1 BYW       0.048700
     36 H9          15.2660   120.2750    11.6230 h1         1 BYW       0.083700
     37 H10         14.7750   121.7730    13.3670 ha         1 BYW       0.119500
     38 H11         15.0170   121.7510    17.8630 ha         1 BYW       0.143500
     39 H12         11.6450   119.0740    17.6260 ha         1 BYW       0.143500
     40 H13         13.7700   117.6380    13.8570 ha         1 BYW       0.119500
     41 H14         14.9920   117.4000    11.4920 hn         1 BYW       0.344500
     42 H15         13.3970   121.3030    10.8620 hn         1 BYW       0.343500
     43 H16         18.8520   117.7740    12.9920 ho         1 BYW       0.474000
     44 H17         11.8530   120.3840     9.1540 ho         1 BYW       0.447000
@<TRIPOS>BOND
     1     1    10 1   
     2     1    12 ar  
     3     1    18 ar  
     4     2    12 ar  
     5     2    13 ar  
     6     2    28 1   
     7     3    13 1   
     8     3    14 ar  
     9     3    17 ar  
    10     4    15 ar  
    11     4    16 ar  
    12     4    20 1   
    13     5    13 ar  
    14     5    18 ar  
    15     5    29 1   
    16     6     7 1   
    17     6    22 1   
    18     6    24 2   
    19     7     8 1   
    20     7     9 1   
    21     7    25 1   
    22     8    30 1   
    23     8    31 1   
    24     8    32 1   
    25     9    33 1   
    26     9    34 1   
    27     9    35 1   
    28    10    11 1   
    29    10    22 1   
    30    10    36 1   
    31    11    23 1   
    32    11    27 2   
    33    12    37 1   
    34    14    15 ar  
    35    14    38 1   
    36    15    19 1   
    37    16    17 ar  
    38    16    21 1   
    39    17    39 1   
    40    18    40 1   
    41    22    41 1   
    42    23    26 1   
    43    23    42 1   
    44    25    43 1   
    45    26    44 1   
@<TRIPOS>SUBSTRUCTURE
     1 BYW         1 TEMP              0 ****  ****    0 ROOT
