@<TRIPOS>MOLECULE
BYX
   28    28     1     0     0
SMALL
abcg2


@<TRIPOS>ATOM
      1 O01          2.7960    -1.1090    -1.1980 o          1 BYX      -0.560600
      2 C02          3.3240    -0.3220    -0.4360 c          1 BYX       0.605600
      3 N03          4.4050    -0.6120     0.3070 ns         1 BYX      -0.393400
      4 O04          4.9040    -1.8770     0.3280 oh         1 BYX      -0.421100
      5 C05          2.8470     1.1110    -0.2700 c3         1 BYX      -0.112600
      6 C06          1.3550     1.1700    -0.1070 ca         1 BYX      -0.074800
      7 C07          0.5150     1.1700    -1.2160 ca         1 BYX      -0.091250
      8 C08         -0.8630     1.1980    -1.0590 ca         1 BYX      -0.091250
      9 C09         -1.4370     1.2260     0.2080 ca         1 BYX      -0.074800
     10 C10         -2.9310     1.2160     0.3670 c3         1 BYX      -0.112600
     11 C11         -3.4420    -0.2020     0.5490 c          1 BYX       0.605600
     12 N12         -4.3860    -0.5480    -0.3420 ns         1 BYX      -0.393400
     13 O13         -5.0590    -1.7230    -0.2000 oh         1 BYX      -0.421100
     14 O14         -3.0140    -0.9510     1.4070 o          1 BYX      -0.560600
     15 C15         -0.5970     1.2280     1.3170 ca         1 BYX      -0.091250
     16 C16          0.7810     1.2010     1.1600 ca         1 BYX      -0.091250
     17 H031         4.7630     0.0020     1.0240 hn         1 BYX       0.334500
     18 H1           5.6160    -1.8990    -0.3250 ho         1 BYX       0.444000
     19 H051         3.3440     1.6030     0.5680 hc         1 BYX       0.065200
     20 H052         3.1510     1.6490    -1.1710 hc         1 BYX       0.065200
     21 H071         0.9380     1.1600    -2.2130 ha         1 BYX       0.115750
     22 H081        -1.5000     1.2020    -1.9360 ha         1 BYX       0.115750
     23 H102        -3.2240     1.7750     1.2600 hc         1 BYX       0.065200
     24 H101        -3.4080     1.7070    -0.4820 hc         1 BYX       0.065200
     25 H121        -4.8260     0.1200    -0.9590 hn         1 BYX       0.334500
     26 H2          -4.6260    -2.3550    -0.7880 ho         1 BYX       0.444000
     27 H151        -1.0200     1.2660     2.3140 ha         1 BYX       0.115750
     28 H161         1.4180     1.2100     2.0370 ha         1 BYX       0.115750
@<TRIPOS>BOND
     1     1     2 2   
     2     2     3 1   
     3     2     5 1   
     4     3     4 1   
     5     3    17 1   
     6     4    18 1   
     7     5     6 1   
     8     5    19 1   
     9     5    20 1   
    10     6     7 ar  
    11     6    16 ar  
    12     7     8 ar  
    13     7    21 1   
    14     8     9 ar  
    15     8    22 1   
    16     9    10 1   
    17     9    15 ar  
    18    10    11 1   
    19    10    23 1   
    20    10    24 1   
    21    11    12 1   
    22    11    14 2   
    23    12    13 1   
    24    12    25 1   
    25    13    26 1   
    26    15    16 ar  
    27    15    27 1   
    28    16    28 1   
@<TRIPOS>SUBSTRUCTURE
     1 BYX         1 TEMP              0 ****  ****    0 ROOT
