@<TRIPOS>MOLECULE
BYX
   28    28     1     0     0
SMALL
No Charge or Current Charge


@<TRIPOS>ATOM
      1 O01          3.2050    -0.8330    -1.7630 o          1 BYX      -0.560600
      2 C02          3.3940    -0.1880    -0.7380 c          1 BYX       0.605600
      3 N03          4.1050    -0.6970     0.3440 ns         1 BYX      -0.393400
      4 O04          4.4340    -2.1060     0.4260 oh         1 BYX      -0.421100
      5 C05          2.8690     1.2430    -0.5590 c3         1 BYX      -0.112600
      6 C06          1.3740     1.2420    -0.2550 ca         1 BYX      -0.074800
      7 C07          0.4360     1.2390    -1.3050 ca         1 BYX      -0.091250
      8 C08         -0.9420     1.2350    -1.0270 ca         1 BYX      -0.091250
      9 C09         -1.3990     1.2350     0.3050 ca         1 BYX      -0.074800
     10 C10         -2.8950     1.2280     0.6070 c3         1 BYX      -0.112600
     11 C11         -3.4220    -0.2070     0.7350 c          1 BYX       0.605600
     12 N12         -4.1160    -0.6840    -0.3720 ns         1 BYX      -0.393400
     13 O13         -4.8850    -1.9100    -0.3010 oh         1 BYX      -0.421100
     14 O14         -3.2320    -0.8890     1.7350 o          1 BYX      -0.560600
     15 C15         -0.4610     1.2370     1.3540 ca         1 BYX      -0.091250
     16 C16          0.9170     1.2400     1.0770 ca         1 BYX      -0.091250
     17 H031         4.1070    -0.1830     1.2240 hn         1 BYX       0.334500
     18 H1           5.3970    -2.1080     0.6390 ho         1 BYX       0.444000
     19 H051         3.4030     1.7330     0.2640 hc         1 BYX       0.065200
     20 H052         3.0520     1.7990    -1.4860 hc         1 BYX       0.065200
     21 H071         0.7730     1.2370    -2.3390 ha         1 BYX       0.115750
     22 H081        -1.6530     1.2320    -1.8500 ha         1 BYX       0.115750
     23 H102        -3.0780     1.7520     1.5520 hc         1 BYX       0.065200
     24 H101        -3.4260     1.7480    -0.1990 hc         1 BYX       0.065200
     25 H121        -4.3690    -0.0370    -1.1180 hn         1 BYX       0.334500
     26 H2          -4.5890    -2.4170    -1.0940 ho         1 BYX       0.444000
     27 H151        -0.7990     1.2330     2.3880 ha         1 BYX       0.115750
     28 H161         1.6270     1.2410     1.9000 ha         1 BYX       0.115750
@<TRIPOS>BOND
     1     1     2 2   
     2     2     3 1   
     3     2     5 1   
     4     3     4 1   
     5     3    17 1   
     6     4    18 1   
     7     5     6 1   
     8     5    19 1   
     9     5    20 1   
    10     6     7 ar  
    11     6    16 ar  
    12     7     8 ar  
    13     7    21 1   
    14     8     9 ar  
    15     8    22 1   
    16     9    10 1   
    17     9    15 ar  
    18    10    11 1   
    19    10    23 1   
    20    10    24 1   
    21    11    12 1   
    22    11    14 2   
    23    12    13 1   
    24    12    25 1   
    25    13    26 1   
    26    15    16 ar  
    27    15    27 1   
    28    16    28 1   
@<TRIPOS>SUBSTRUCTURE
     1 BYX         1 TEMP              0 ****  ****    0 ROOT
