@<TRIPOS>MOLECULE
BYY
   31    32     1     0     0
SMALL
No Charge or Current Charge


@<TRIPOS>ATOM
      1 O3           3.4300    -2.6940    -1.3920 o          1 BYY      -0.591000
      2 C3           3.1910    -1.8810    -0.5210 c          1 BYY       0.615000
      3 N1           3.9930    -0.8480    -0.1770 ns         1 BYY      -0.534900
      4 N2           2.0960    -1.8820     0.2710 ns         1 BYY      -0.501900
      5 C4           2.0820    -0.7720     1.2340 c5         1 BYY       0.094700
      6 C5           3.4200    -0.0020     0.8750 c5         1 BYY       0.104700
      7 C6           3.0470     1.3420     0.1600 c5         1 BYY       0.089600
      8 SE1          1.4020     1.0810    -0.6550 ss         1 BYY      -0.513000
      9 C2           0.8720     0.1670     0.8690 c5         1 BYY       0.149300
     10 C7          -0.5000    -0.5340     0.6700 c3         1 BYY      -0.069400
     11 C8          -1.6970     0.4350     0.5250 c3         1 BYY      -0.082400
     12 C9          -3.0520    -0.2940     0.3740 c3         1 BYY      -0.054400
     13 C10         -4.2520     0.6740     0.2330 c3         1 BYY      -0.205400
     14 C11         -5.5630    -0.1210     0.0900 c          1 BYY       0.717000
     15 O11         -5.9210    -0.4460    -1.0320 o          1 BYY      -0.742000
     16 O12         -6.1620    -0.4330     1.1080 o          1 BYY      -0.742000
     17 H1           4.8600    -0.7000    -0.6790 hn         1 BYY       0.337500
     18 H2           1.3920    -2.5980     0.1490 hn         1 BYY       0.340500
     19 H3           2.0530    -1.1200     2.2750 h1         1 BYY       0.055700
     20 H4           4.0950     0.1340     1.7300 h1         1 BYY       0.053700
     21 H5           2.9450     2.1480     0.8990 h1         1 BYY       0.066700
     22 H6           3.8040     1.6580    -0.5710 h1         1 BYY       0.066700
     23 H7           0.7510     0.9040     1.6750 h1         1 BYY       0.065700
     24 H8          -0.4660    -1.1810    -0.2140 hc         1 BYY       0.051200
     25 H9          -0.6900    -1.1900     1.5290 hc         1 BYY       0.051200
     26 H10         -1.7370     1.0900     1.4050 hc         1 BYY       0.033200
     27 H11         -1.5410     1.0810    -0.3480 hc         1 BYY       0.033200
     28 H12         -3.0110    -0.9490    -0.5050 hc         1 BYY       0.038700
     29 H13         -3.2120    -0.9410     1.2460 hc         1 BYY       0.038700
     30 H14         -4.2650     1.2730     1.1520 hc         1 BYY       0.016200
     31 H15         -4.0590     1.2610    -0.6740 hc         1 BYY       0.016200
@<TRIPOS>BOND
     1     1     2 2   
     2     2     3 1   
     3     2     4 1   
     4     3     6 1   
     5     3    17 1   
     6     4     5 1   
     7     4    18 1   
     8     5     6 1   
     9     5     9 1   
    10     5    19 1   
    11     6     7 1   
    12     6    20 1   
    13     7     8 1   
    14     7    21 1   
    15     7    22 1   
    16     8     9 1   
    17     9    10 1   
    18     9    23 1   
    19    10    11 1   
    20    10    24 1   
    21    10    25 1   
    22    11    12 1   
    23    11    26 1   
    24    11    27 1   
    25    12    13 1   
    26    12    28 1   
    27    12    29 1   
    28    13    14 1   
    29    13    30 1   
    30    13    31 1   
    31    14    15 1   
    32    14    16 1   
@<TRIPOS>SUBSTRUCTURE
     1 BYY         1 TEMP              0 ****  ****    0 ROOT
