@<TRIPOS>MOLECULE
BYY
   31    32     1     0     0
SMALL
abcg2


@<TRIPOS>ATOM
      1 O3           3.5730    -2.9830    -1.0420 o          1 BYY      -0.591000
      2 C3           3.2420    -2.0250    -0.3590 c          1 BYY       0.615000
      3 N1           3.9860    -0.9250    -0.0960 ns         1 BYY      -0.534900
      4 N2           2.0480    -1.8630     0.2770 ns         1 BYY      -0.501900
      5 C4           1.9980    -0.6830     1.1050 c5         1 BYY       0.094700
      6 C5           3.3520     0.0220     0.7830 c5         1 BYY       0.104700
      7 C6           3.1120     1.3840     0.1300 c5         1 BYY       0.089600
      8 SE1          1.4040     1.2480    -0.8080 ss         1 BYY      -0.513000
      9 C2           0.8180     0.2370     0.7760 c5         1 BYY       0.149300
     10 C7          -0.5020    -0.4900     0.5920 c3         1 BYY      -0.069400
     11 C8          -1.7050     0.4310     0.4330 c3         1 BYY      -0.082400
     12 C9          -3.0200    -0.3370     0.3620 c3         1 BYY      -0.054400
     13 C10         -4.2250     0.5770     0.2120 c3         1 BYY      -0.205400
     14 C11         -5.5970    -0.1190     0.1470 c          1 BYY       0.717000
     15 O11         -6.5730     0.6190    -0.1060 o          1 BYY      -0.742000
     16 O12         -5.6390    -1.3470     0.3600 o          1 BYY      -0.742000
     17 H1           4.9030    -0.7890    -0.4840 hn         1 BYY       0.337500
     18 H2           1.4700    -2.6640     0.4690 hn         1 BYY       0.340500
     19 H3           1.9380    -0.9530     2.1640 h1         1 BYY       0.055700
     20 H4           3.9470     0.1670     1.6900 h1         1 BYY       0.053700
     21 H5           3.0410     2.1620     0.8920 h1         1 BYY       0.066700
     22 H6           3.9160     1.6520    -0.5560 h1         1 BYY       0.066700
     23 H7           0.7170     0.9590     1.5930 h1         1 BYY       0.065700
     24 H8          -0.4410    -1.1720    -0.2610 hc         1 BYY       0.051200
     25 H9          -0.6570    -1.1200     1.4770 hc         1 BYY       0.051200
     26 H10         -1.7370     1.1360     1.2710 hc         1 BYY       0.033200
     27 H11         -1.5950     1.0420    -0.4700 hc         1 BYY       0.033200
     28 H12         -2.9790    -1.0410    -0.4750 hc         1 BYY       0.038700
     29 H13         -3.1300    -0.9490     1.2620 hc         1 BYY       0.038700
     30 H14         -4.2500     1.2880     1.0460 hc         1 BYY       0.016200
     31 H15         -4.1100     1.1990    -0.6830 hc         1 BYY       0.016200
@<TRIPOS>BOND
     1     1     2 2   
     2     2     3 1   
     3     2     4 1   
     4     3     6 1   
     5     3    17 1   
     6     4     5 1   
     7     4    18 1   
     8     5     6 1   
     9     5     9 1   
    10     5    19 1   
    11     6     7 1   
    12     6    20 1   
    13     7     8 1   
    14     7    21 1   
    15     7    22 1   
    16     8     9 1   
    17     9    10 1   
    18     9    23 1   
    19    10    11 1   
    20    10    24 1   
    21    10    25 1   
    22    11    12 1   
    23    11    26 1   
    24    11    27 1   
    25    12    13 1   
    26    12    28 1   
    27    12    29 1   
    28    13    14 1   
    29    13    30 1   
    30    13    31 1   
    31    14    15 1   
    32    14    16 1   
@<TRIPOS>SUBSTRUCTURE
     1 BYY         1 TEMP              0 ****  ****    0 ROOT
