@<TRIPOS>MOLECULE
BYZ
    9     9     1     0     0
SMALL
abcg2


@<TRIPOS>ATOM
      1 BR4          1.4210     0.0220     0.0570 br         1 BYZ      -0.050100
      2 C4          -0.4380    -0.0040     0.0380 cc         1 BYZ      -0.159900
      3 C5          -1.2510    -1.1140     0.0240 cd         1 BYZ      -0.138000
      4 N1          -2.5020    -0.6340     0.0130 na         1 BYZ       0.003800
      5 N2          -2.5630     0.6910     0.0190 nd         1 BYZ      -0.517800
      6 C3          -1.3080     1.0980     0.0340 cc         1 BYZ       0.271900
      7 H1          -1.0300    -2.1680     0.0200 h4         1 BYZ       0.167000
      8 H2          -3.3530    -1.1750    -0.0000 hn         1 BYZ       0.375000
      9 H3          -1.0610     2.1480     0.0420 h4         1 BYZ       0.050100
@<TRIPOS>BOND
     1     1     2 1   
     2     2     3 2   
     3     2     6 1   
     4     3     4 1   
     5     3     7 1   
     6     4     5 1   
     7     4     8 1   
     8     5     6 2   
     9     6     9 1   
@<TRIPOS>SUBSTRUCTURE
     1 BYZ         1 TEMP              0 ****  ****    0 ROOT
