@<TRIPOS>MOLECULE
BYZ
    9     9     1     0     0
SMALL
No Charge or Current Charge


@<TRIPOS>ATOM
      1 Br4          1.4430     0.0320     0.0580 br         1 BYZ      -0.050100
      2 C4          -0.4420    -0.0140     0.0380 cc         1 BYZ      -0.159900
      3 C5          -1.2290    -1.1260     0.0230 cd         1 BYZ      -0.138000
      4 N1          -2.5420    -0.6350     0.0120 na         1 BYZ       0.003800
      5 N2          -2.5890     0.7620     0.0190 nd         1 BYZ      -0.517800
      6 C3          -1.3110     1.0880     0.0340 cc         1 BYZ       0.271900
      7 H1          -0.9820    -2.1830     0.0210 h4         1 BYZ       0.167000
      8 H2          -3.3930    -1.1970     0.0000 hn         1 BYZ       0.375000
      9 H3          -1.0390     2.1360     0.0420 h4         1 BYZ       0.050100
@<TRIPOS>BOND
     1     1     2 1   
     2     2     3 2   
     3     2     6 1   
     4     3     4 1   
     5     3     7 1   
     6     4     5 1   
     7     4     8 1   
     8     5     6 2   
     9     6     9 1   
@<TRIPOS>SUBSTRUCTURE
     1 BYZ         1 TEMP              0 ****  ****    0 ROOT
