@<TRIPOS>MOLECULE
BZ0
   41    43     1     0     0
SMALL
bcc


@<TRIPOS>ATOM
      1 CAW          3.9540    -0.6520    -0.7060 ca         1 BZ0      -0.116500
      2 CAX          4.6400    -1.6800    -1.3370 ca         1 BZ0      -0.124500
      3 CBA          5.0900    -2.7740    -0.6090 ca         1 BZ0      -0.118000
      4 CAZ          4.8490    -2.8350     0.7560 ca         1 BZ0      -0.124500
      5 CAY          4.1570    -1.8090     1.3870 ca         1 BZ0      -0.116500
      6 CAV          3.7060    -0.7100     0.6630 ca         1 BZ0      -0.124300
      7 CAU          3.0060     0.4160     1.3810 c3         1 BZ0       0.133300
      8 NAN          1.8840     0.9760     0.6350 n          1 BZ0      -0.401000
      9 CAO          0.7190     0.2600     0.4820 cc         1 BZ0       0.391600
     10 NAP          0.6480    -0.9520     1.0290 nv         1 BZ0      -0.868600
     11 CAM          2.0330     2.2460     0.0940 c          1 BZ0       0.837500
     12 OAL          3.0640     2.8770     0.2040 o          1 BZ0      -0.635500
     13 NAD          0.9490     2.7340    -0.5640 ns         1 BZ0      -0.599500
     14 CAE         -0.2700     2.0960    -0.7790 c          1 BZ0       0.756700
     15 OAA         -1.1550     2.6680    -1.3960 o          1 BZ0      -0.612500
     16 CAF         -0.3400     0.7880    -0.2290 cd         1 BZ0      -0.297600
     17 NAG         -1.5240     0.0470    -0.3690 ns         1 BZ0      -0.467100
     18 OAC         -2.5840     1.0600     1.3490 o          1 BZ0      -0.576100
     19 CA0         -2.6180     0.3100     0.3900 c          1 BZ0       0.681700
     20 CAT         -3.8700    -0.4040    -0.0000 ca         1 BZ0      -0.151600
     21 CAS         -4.8010    -0.6910     0.9960 ca         1 BZ0      -0.090500
     22 CAR         -5.9840    -1.3420     0.6830 ca         1 BZ0      -0.138500
     23 CAI         -6.2590    -1.6910    -0.6340 ca         1 BZ0      -0.108000
     24 CAJ         -5.3460    -1.3890    -1.6340 ca         1 BZ0      -0.138500
     25 CAK         -4.1540    -0.7520    -1.3190 ca         1 BZ0      -0.090500
     26 HAY          3.9660    -1.8670     2.4530 ha         1 BZ0       0.135000
     27 HAZ          5.1930    -3.6850     1.3310 ha         1 BZ0       0.136000
     28 HBA          5.6240    -3.5740    -1.1040 ha         1 BZ0       0.136000
     29 HAX          4.8250    -1.6240    -2.4020 ha         1 BZ0       0.136000
     30 HAW          3.6120     0.1920    -1.2910 ha         1 BZ0       0.135000
     31 HAU1         2.6600     0.0990     2.3670 h1         1 BZ0       0.081700
     32 HAU2         3.7050     1.2300     1.5600 h1         1 BZ0       0.081700
     33 HAP1         1.3980    -1.3930     1.5290 hn         1 BZ0       0.454800
     34 HAP2        -0.2050    -1.4780     0.9380 hn         1 BZ0       0.454800
     35 HAD          1.0570     3.6600    -0.9560 hn         1 BZ0       0.346500
     36 HAG         -1.6050    -0.5950    -1.1430 hn         1 BZ0       0.315500
     37 HAS         -4.5940    -0.4160     2.0220 ha         1 BZ0       0.142000
     38 HAK         -3.4670    -0.5070    -2.1200 ha         1 BZ0       0.142000
     39 HAR         -6.6940    -1.5740     1.4660 ha         1 BZ0       0.134500
     40 HAI         -7.1860    -2.1930    -0.8800 ha         1 BZ0       0.132000
     41 HAJ         -5.5620    -1.6430    -2.6630 ha         1 BZ0       0.134500
@<TRIPOS>BOND
     1     1     2 ar  
     2     1     6 ar  
     3     1    30 1   
     4     2     3 ar  
     5     2    29 1   
     6     3     4 ar  
     7     3    28 1   
     8     4     5 ar  
     9     4    27 1   
    10     5     6 ar  
    11     5    26 1   
    12     6     7 1   
    13     7     8 1   
    14     7    31 1   
    15     7    32 1   
    16     8     9 1   
    17     8    11 1   
    18     9    10 1   
    19     9    16 2   
    20    10    33 1   
    21    10    34 1   
    22    11    12 2   
    23    11    13 1   
    24    13    14 1   
    25    13    35 1   
    26    14    15 2   
    27    14    16 1   
    28    16    17 1   
    29    17    19 1   
    30    17    36 1   
    31    18    19 2   
    32    19    20 1   
    33    20    21 ar  
    34    20    25 ar  
    35    21    22 ar  
    36    21    37 1   
    37    22    23 ar  
    38    22    39 1   
    39    23    24 ar  
    40    23    40 1   
    41    24    25 ar  
    42    24    41 1   
    43    25    38 1   
@<TRIPOS>SUBSTRUCTURE
     1 BZ0         1 TEMP              0 ****  ****    0 ROOT
