@<TRIPOS>MOLECULE
BZ0
   41    43     1     0     0
SMALL
No Charge or Current Charge


@<TRIPOS>ATOM
      1 CAW          4.0420    -0.9410    -0.4390 ca         1 BZ0      -0.098500
      2 CAX          4.5730    -2.2290    -0.6240 ca         1 BZ0      -0.106500
      3 CBA          4.7860    -3.0690     0.4810 ca         1 BZ0      -0.100000
      4 CAZ          4.4700    -2.6190     1.7740 ca         1 BZ0      -0.106500
      5 CAY          3.9390    -1.3310     1.9610 ca         1 BZ0      -0.098500
      6 CAV          3.7170    -0.4860     0.8550 ca         1 BZ0      -0.124300
      7 CAU          3.1320     0.9110     1.0590 c3         1 BZ0       0.133300
      8 NAN          1.9800     1.2270     0.1580 n          1 BZ0      -0.334000
      9 CAO          0.7400     0.5930     0.2820 cc         1 BZ0       0.391600
     10 NAP          0.6610    -0.3260     1.2660 nv         1 BZ0      -0.979000
     11 CAM          2.1740     2.2220    -0.8160 c          1 BZ0       0.628000
     12 OAL          3.2340     2.8000    -0.9970 o          1 BZ0      -0.560000
     13 NAD          1.1030     2.5380    -1.5710 ns         1 BZ0      -0.465500
     14 CAE         -0.1390     2.0160    -1.5270 c          1 BZ0       0.614200
     15 OAA         -1.0210     2.4190    -2.2690 o          1 BZ0      -0.537000
     16 CAF         -0.3320     0.9330    -0.5330 cd         1 BZ0      -0.297600
     17 NAG         -1.6430     0.3810    -0.4900 ns         1 BZ0      -0.400100
     18 OAC         -1.4820    -1.7300     0.4230 o          1 BZ0      -0.576100
     19 CA0         -2.1690    -0.8260    -0.0310 c          1 BZ0       0.614700
     20 CAT         -3.6760    -0.9740    -0.1520 ca         1 BZ0      -0.151600
     21 CAS         -4.2810    -2.2030     0.2020 ca         1 BZ0      -0.072500
     22 CAR         -5.6720    -2.3770     0.1030 ca         1 BZ0      -0.120500
     23 CAI         -6.4840    -1.3260    -0.3480 ca         1 BZ0      -0.090000
     24 CAJ         -5.9020    -0.0990    -0.6990 ca         1 BZ0      -0.120500
     25 CAK         -4.5110     0.0820    -0.6030 ca         1 BZ0      -0.072500
     26 HAY          3.7040    -0.9920     2.9690 ha         1 BZ0       0.117000
     27 HAZ          4.6380    -3.2670     2.6310 ha         1 BZ0       0.118000
     28 HBA          5.1970    -4.0660     0.3370 ha         1 BZ0       0.118000
     29 HAX          4.8200    -2.5760    -1.6260 ha         1 BZ0       0.118000
     30 HAW          3.8830    -0.2990    -1.3020 ha         1 BZ0       0.117000
     31 HAU1         2.7980     1.0240     2.0990 h1         1 BZ0       0.081700
     32 HAU2         3.9430     1.6390     0.9340 h1         1 BZ0       0.081700
     33 HAP1         1.5290    -0.7820     1.5210 hn         1 BZ0       0.510000
     34 HAP2        -0.1300    -0.9650     1.1860 hn         1 BZ0       0.510000
     35 HAD          1.2490     3.2630    -2.2550 hn         1 BZ0       0.346500
     36 HAG         -2.3570     0.9210    -0.9660 hn         1 BZ0       0.315500
     37 HAS         -3.6730    -3.0340     0.5530 ha         1 BZ0       0.124000
     38 HAK         -4.1050     1.0530    -0.8760 ha         1 BZ0       0.124000
     39 HAR         -6.1200    -3.3300     0.3770 ha         1 BZ0       0.116500
     40 HAI         -7.5610    -1.4620    -0.4230 ha         1 BZ0       0.114000
     41 HAJ         -6.5320     0.7180    -1.0450 ha         1 BZ0       0.116500
@<TRIPOS>BOND
     1     1     2 ar  
     2     1     6 ar  
     3     1    30 1   
     4     2     3 ar  
     5     2    29 1   
     6     3     4 ar  
     7     3    28 1   
     8     4     5 ar  
     9     4    27 1   
    10     5     6 ar  
    11     5    26 1   
    12     6     7 1   
    13     7     8 1   
    14     7    31 1   
    15     7    32 1   
    16     8     9 1   
    17     8    11 1   
    18     9    10 1   
    19     9    16 2   
    20    10    33 1   
    21    10    34 1   
    22    11    12 2   
    23    11    13 1   
    24    13    14 1   
    25    13    35 1   
    26    14    15 2   
    27    14    16 1   
    28    16    17 1   
    29    17    19 1   
    30    17    36 1   
    31    18    19 2   
    32    19    20 1   
    33    20    21 ar  
    34    20    25 ar  
    35    21    22 ar  
    36    21    37 1   
    37    22    23 ar  
    38    22    39 1   
    39    23    24 ar  
    40    23    40 1   
    41    24    25 ar  
    42    24    41 1   
    43    25    38 1   
@<TRIPOS>SUBSTRUCTURE
     1 BZ0         1 TEMP              0 ****  ****    0 ROOT
