@<TRIPOS>MOLECULE
BZ1
   44    45     1     0     0
SMALL
No Charge or Current Charge


@<TRIPOS>ATOM
      1 C3          -4.2860    -0.4700    -0.2210 c3         1 BZ1      -0.091400
      2 C9           0.5490     0.7550    -0.2300 cc         1 BZ1      -0.035300
      3 C10          0.2540    -0.4360    -0.8490 cd         1 BZ1      -0.430500
      4 C11         -0.3430     1.9840    -0.2430 c6         1 BZ1       0.208800
      5 C12         -1.4820     1.8010    -1.3030 c6         1 BZ1       0.184800
      6 C4          -5.0830    -0.6170     1.0870 c3         1 BZ1       0.163600
      7 C5           0.8210     5.6310    -0.6460 c3         1 BZ1      -0.094100
      8 S2           1.4820    -1.6670    -0.6030 ss         1 BZ1       0.515000
      9 N2           3.3860    -1.4210     2.6020 n8         1 BZ1      -1.013100
     10 O3           4.7380     0.1550     1.3420 o          1 BZ1      -0.523500
     11 O4           4.3930    -2.2550     0.5110 o          1 BZ1      -0.523500
     12 C7           2.3840    -0.5360     0.4000 cd         1 BZ1      -0.468500
     13 C8           1.7700     0.6910     0.4930 cc         1 BZ1      -0.021000
     14 S3          -1.1910    -0.8240    -1.7680 sy         1 BZ1       1.190600
     15 O2          -1.7490    -2.0760    -1.2510 o          1 BZ1      -0.523000
     16 O5          -0.9510    -0.6430    -3.2030 o          1 BZ1      -0.523000
     17 N3          -2.1750     0.4790    -1.2590 n3         1 BZ1      -0.718500
     18 C2          -2.9420     0.2590    -0.0110 c3         1 BZ1       0.211800
     19 O1          -6.3140    -1.2870     0.7760 os         1 BZ1      -0.447000
     20 C1          -7.1770    -1.5020     1.9050 c3         1 BZ1       0.146900
     21 H31         -4.1230    -1.4650    -0.6460 hc         1 BZ1       0.074200
     22 H32         -4.8850     0.0950    -0.9440 hc         1 BZ1       0.074200
     23 H11         -0.8050     2.0840     0.7500 h1         1 BZ1       0.039700
     24 H121        -2.2130     2.6120    -1.1710 h1         1 BZ1       0.091200
     25 H122        -1.0430     1.9550    -2.3000 h1         1 BZ1       0.091200
     26 H41         -4.4970    -1.1980     1.8110 h1         1 BZ1       0.017200
     27 H42         -5.2800     0.3760     1.5120 h1         1 BZ1       0.017200
     28 H51          1.6660     5.5910     0.0520 hc         1 BZ1       0.043367
     29 H52          1.2080     5.5520    -1.6690 hc         1 BZ1       0.043367
     30 H53          0.3360     6.6080    -0.5390 hc         1 BZ1       0.043367
     31 H61         -0.5680     4.6250     0.6670 h1         1 BZ1       0.027700
     32 H62         -1.0300     4.6000    -1.0480 h1         1 BZ1       0.027700
     33 HN21         3.9810    -0.8210     3.1670 hn         1 BZ1       0.484500
     34 HN22         2.4830    -0.9560     2.6220 hn         1 BZ1       0.484500
     35 H8           2.1620     1.5300     1.0620 ha         1 BZ1       0.143000
     36 HN1          1.2810     3.1820     0.1260 hn         1 BZ1       0.430000
     37 H21         -3.1860     1.2290     0.4430 h1         1 BZ1       0.045700
     38 H22         -2.3360    -0.2840     0.7280 h1         1 BZ1       0.045700
     39 H11A        -7.4610    -0.5470     2.3660 h1         1 BZ1       0.029367
     40 H12         -8.0940    -2.0170     1.5930 h1         1 BZ1       0.029367
     41 H13         -6.6790    -2.1200     2.6640 h1         1 BZ1       0.029367
     42 N1           0.4760     3.1970    -0.5090 n7         1 BZ1      -0.871400
     43 S1           3.9000    -1.0180     1.1130 sy         1 BZ1       1.188600
     44 C6          -0.1830     4.5060    -0.3550 c3         1 BZ1       0.162800
@<TRIPOS>BOND
     1     1     6 1   
     2     1    18 1   
     3     1    21 1   
     4     1    22 1   
     5     2     3 2   
     6     2     4 1   
     7     2    13 1   
     8     3     8 1   
     9     3    14 1   
    10     4     5 1   
    11     4    23 1   
    12     4    42 1   
    13     5    17 1   
    14     5    24 1   
    15     5    25 1   
    16     6    19 1   
    17     6    26 1   
    18     6    27 1   
    19     7    28 1   
    20     7    29 1   
    21     7    30 1   
    22     7    44 1   
    23     8    12 1   
    24     9    33 1   
    25     9    34 1   
    26     9    43 1   
    27    10    43 2   
    28    11    43 2   
    29    12    13 2   
    30    12    43 1   
    31    13    35 1   
    32    14    15 2   
    33    14    16 2   
    34    14    17 1   
    35    17    18 1   
    36    18    37 1   
    37    18    38 1   
    38    19    20 1   
    39    20    39 1   
    40    20    40 1   
    41    20    41 1   
    42    31    44 1   
    43    32    44 1   
    44    36    42 1   
    45    42    44 1   
@<TRIPOS>SUBSTRUCTURE
     1 BZ1         1 TEMP              0 ****  ****    0 ROOT
