@<TRIPOS>MOLECULE
BZ1
   44    45     1     0     0
SMALL
bcc


@<TRIPOS>ATOM
      1 C3          -4.2890    -0.3870    -0.2570 c3         1 BZ1      -0.091400
      2 C9           0.6000     0.7690    -0.2330 cc         1 BZ1      -0.035300
      3 C10          0.3240    -0.4630    -0.7630 cd         1 BZ1      -0.285600
      4 C11         -0.3250     1.9560    -0.3000 c6         1 BZ1       0.208800
      5 C12         -1.4710     1.7080    -1.2930 c6         1 BZ1       0.184800
      6 C4          -5.1250    -0.5360     1.0000 c3         1 BZ1       0.140400
      7 C5           0.5570     5.6000    -0.6490 c3         1 BZ1      -0.094100
      8 S2           1.5360    -1.6330    -0.4770 ss         1 BZ1       0.225200
      9 N2           3.7000    -1.2600     2.6940 n8         1 BZ1      -0.902700
     10 O3           4.8500     0.2100     1.0660 o          1 BZ1      -0.594300
     11 O4           4.3280    -2.1970     0.4840 o          1 BZ1      -0.594300
     12 C7           2.4440    -0.4680     0.3860 cd         1 BZ1      -0.323600
     13 C8           1.8460     0.7530     0.4470 cc         1 BZ1      -0.039000
     14 S3          -1.1510    -0.8270    -1.6490 sy         1 BZ1       1.332200
     15 O2          -1.6710    -2.0940    -1.1730 o          1 BZ1      -0.593800
     16 O5          -0.8850    -0.6650    -3.0650 o          1 BZ1      -0.593800
     17 N3          -2.1140     0.4030    -1.1400 n3         1 BZ1      -0.718500
     18 C2          -2.9210     0.1860     0.0710 c3         1 BZ1       0.211800
     19 O1          -6.3790    -1.0680     0.6570 os         1 BZ1      -0.400600
     20 C1          -7.2020    -1.2690     1.7770 c3         1 BZ1       0.123700
     21 H31         -4.1810    -1.3610    -0.7390 hc         1 BZ1       0.074200
     22 H32         -4.7930     0.2770    -0.9640 hc         1 BZ1       0.074200
     23 H11         -0.7460     2.0630     0.7140 h1         1 BZ1       0.039700
     24 H121        -2.2450     2.4660    -1.1750 h1         1 BZ1       0.091200
     25 H122        -1.0860     1.8090    -2.3080 h1         1 BZ1       0.091200
     26 H41         -4.6090    -1.1910     1.7170 h1         1 BZ1       0.017200
     27 H42         -5.2390     0.4410     1.4940 h1         1 BZ1       0.017200
     28 H51          1.6170     5.5600    -0.3900 hc         1 BZ1       0.043367
     29 H52          0.4780     5.6740    -1.7340 hc         1 BZ1       0.043367
     30 H53          0.1450     6.5100    -0.2140 hc         1 BZ1       0.043367
     31 H61         -0.1520     4.3680     0.9690 h1         1 BZ1       0.027700
     32 H62         -1.2340     4.4510    -0.4090 h1         1 BZ1       0.027700
     33 HN21         3.4530    -0.4520     3.2540 hn         1 BZ1       0.429300
     34 HN22         3.0850    -2.0480     2.8660 hn         1 BZ1       0.429300
     35 H8           2.2700     1.6020     0.9670 ha         1 BZ1       0.161000
     36 HN1          1.3590     3.1110    -0.4680 hn         1 BZ1       0.374800
     37 H21         -3.0370     1.1660     0.5370 h1         1 BZ1       0.045700
     38 H22         -2.3970    -0.4360     0.8020 h1         1 BZ1       0.045700
     39 H11A        -7.4210    -0.3310     2.3020 h1         1 BZ1       0.029367
     40 H12         -8.1430    -1.6970     1.4330 h1         1 BZ1       0.029367
     41 H13         -6.7530    -1.9610     2.5000 h1         1 BZ1       0.029367
     42 N1           0.3770     3.1630    -0.7020 n7         1 BZ1      -0.816200
     43 S1           3.9740    -0.9420     1.1190 sy         1 BZ1       1.330200
     44 C6          -0.1800     4.3800    -0.1300 c3         1 BZ1       0.162800
@<TRIPOS>BOND
     1     1     6 1   
     2     1    18 1   
     3     1    21 1   
     4     1    22 1   
     5     2     3 2   
     6     2     4 1   
     7     2    13 1   
     8     3     8 1   
     9     3    14 1   
    10     4     5 1   
    11     4    23 1   
    12     4    42 1   
    13     5    17 1   
    14     5    24 1   
    15     5    25 1   
    16     6    19 1   
    17     6    26 1   
    18     6    27 1   
    19     7    28 1   
    20     7    29 1   
    21     7    30 1   
    22     7    44 1   
    23     8    12 1   
    24     9    33 1   
    25     9    34 1   
    26     9    43 1   
    27    10    43 2   
    28    11    43 2   
    29    12    13 2   
    30    12    43 1   
    31    13    35 1   
    32    14    15 2   
    33    14    16 2   
    34    14    17 1   
    35    17    18 1   
    36    18    37 1   
    37    18    38 1   
    38    19    20 1   
    39    20    39 1   
    40    20    40 1   
    41    20    41 1   
    42    31    44 1   
    43    32    44 1   
    44    36    42 1   
    45    42    44 1   
@<TRIPOS>SUBSTRUCTURE
     1 BZ1         1 TEMP              0 ****  ****    0 ROOT
