@<TRIPOS>MOLECULE
BZ2
   17    18     1     0     0
SMALL
No Charge or Current Charge


@<TRIPOS>ATOM
      1 OAA         -3.2420    -1.0640    -0.0420 o          1 BZ2      -0.692000
      2 OAB         -3.3210     1.0840    -0.0260 o          1 BZ2      -0.692000
      3 CAC          3.3760     0.5890     0.0110 ca         1 BZ2      -0.152000
      4 CAD          3.2960    -0.8270    -0.0000 ca         1 BZ2      -0.132000
      5 CAE          2.2040     1.3790     0.0100 ca         1 BZ2      -0.081000
      6 CAF          2.0390    -1.4720    -0.0130 ca         1 BZ2      -0.105000
      7 CAG         -0.3830     1.2260    -0.0070 cc         1 BZ2      -0.285200
      8 OAH         -0.4070    -1.0450    -0.0250 os         1 BZ2      -0.145200
      9 CAI         -2.6930     0.0310    -0.0300 c          1 BZ2       0.735200
     10 CAJ         -1.1910     0.0890    -0.0210 cd         1 BZ2       0.005900
     11 CAK          0.9720     0.7140    -0.0030 ca         1 BZ2      -0.101800
     12 CAL          0.9000    -0.6610    -0.0140 ca         1 BZ2       0.036100
     13 HAC          4.3500     1.0730     0.0210 ha         1 BZ2       0.089000
     14 HAD          4.2070    -1.4210     0.0010 ha         1 BZ2       0.091000
     15 HAE          2.2570     2.4650     0.0190 ha         1 BZ2       0.101000
     16 HAF          1.9580    -2.5570    -0.0220 ha         1 BZ2       0.115000
     17 HAG         -0.7210     2.2590    -0.0010 ha         1 BZ2       0.213000
@<TRIPOS>BOND
     1     1     9 1   
     2     2     9 1   
     3     3     4 ar  
     4     3     5 ar  
     5     3    13 1   
     6     4     6 ar  
     7     4    14 1   
     8     5    11 ar  
     9     5    15 1   
    10     6    12 ar  
    11     6    16 1   
    12     7    10 2   
    13     7    11 1   
    14     7    17 1   
    15     8    10 1   
    16     8    12 1   
    17     9    10 1   
    18    11    12 ar  
@<TRIPOS>SUBSTRUCTURE
     1 BZ2         1 TEMP              0 ****  ****    0 ROOT
