@<TRIPOS>MOLECULE
BZ2
   17    18     1     0     0
SMALL
bcc


@<TRIPOS>ATOM
      1 OAA         -3.1040    -1.1790    -0.0480 o          1 BZ2      -0.797300
      2 OAB         -3.2930     1.0530    -0.0110 o          1 BZ2      -0.797300
      3 CAC          3.3490     0.5720     0.0120 ca         1 BZ2      -0.170000
      4 CAD          3.2320    -0.8250     0.0010 ca         1 BZ2      -0.150000
      5 CAE          2.2310     1.3860     0.0080 ca         1 BZ2      -0.099000
      6 CAF          1.9930    -1.4460    -0.0140 ca         1 BZ2      -0.123000
      7 CAG         -0.3870     1.2390    -0.0100 cc         1 BZ2      -0.235200
      8 OAH         -0.4050    -1.0010    -0.0290 os         1 BZ2      -0.145200
      9 CAI         -2.6630    -0.0190    -0.0280 c          1 BZ2       0.945800
     10 CAJ         -1.1650     0.1320    -0.0230 cd         1 BZ2       0.005900
     11 CAK          0.9710     0.7820    -0.0060 ca         1 BZ2      -0.101800
     12 CAL          0.8850    -0.6140    -0.0170 ca         1 BZ2       0.036100
     13 HAC          4.3360     1.0170     0.0240 ha         1 BZ2       0.107000
     14 HAD          4.1270    -1.4340     0.0060 ha         1 BZ2       0.109000
     15 HAE          2.3300     2.4630     0.0170 ha         1 BZ2       0.119000
     16 HAF          1.8990    -2.5240    -0.0210 ha         1 BZ2       0.133000
     17 HAG         -0.7350     2.2590    -0.0030 ha         1 BZ2       0.163000
@<TRIPOS>BOND
     1     1     9 1   
     2     2     9 1   
     3     3     4 ar  
     4     3     5 ar  
     5     3    13 1   
     6     4     6 ar  
     7     4    14 1   
     8     5    11 ar  
     9     5    15 1   
    10     6    12 ar  
    11     6    16 1   
    12     7    10 2   
    13     7    11 1   
    14     7    17 1   
    15     8    10 1   
    16     8    12 1   
    17     9    10 1   
    18    11    12 ar  
@<TRIPOS>SUBSTRUCTURE
     1 BZ2         1 TEMP              0 ****  ****    0 ROOT
