@<TRIPOS>MOLECULE
BZ3
   20    21     1     0     0
SMALL
No Charge or Current Charge


@<TRIPOS>ATOM
      1 CAA          3.8700     0.1090     0.0260 c3         1 BZ3       0.151900
      2 CAB         -3.2520    -0.3620     0.0020 cc         1 BZ3      -0.155100
      3 CAC          1.1550     1.1590     0.0320 ca         1 BZ3      -0.166000
      4 CAD         -2.2300    -1.3020    -0.0060 cd         1 BZ3      -0.249200
      5 CAE         -0.1780     1.6320     0.0340 ca         1 BZ3      -0.093000
      6 CAF          0.3580    -1.1630     0.0020 ca         1 BZ3      -0.103000
      7 NAG         -2.5820     0.8820     0.0190 na         1 BZ3      -0.225700
      8 OAH          2.7110    -0.7440     0.0120 os         1 BZ3      -0.348100
      9 CAI          1.4260    -0.2390     0.0150 ca         1 BZ3       0.107100
     10 CAJ         -0.9450    -0.6540     0.0050 ca         1 BZ3      -0.061800
     11 CAK         -1.2090     0.6840     0.0200 ca         1 BZ3      -0.080200
     12 HAA          3.8820     0.7370     0.9250 h1         1 BZ3       0.036033
     13 HAAA         4.7860    -0.4950     0.0200 h1         1 BZ3       0.036033
     14 HAAB         3.8860     0.7590    -0.8590 h1         1 BZ3       0.036033
     15 HAC          1.9600     1.8880     0.0420 ha         1 BZ3       0.114000
     16 HAD         -2.3850    -2.3790    -0.0200 ha         1 BZ3       0.206000
     17 HAE         -0.3940     2.6980     0.0460 ha         1 BZ3       0.111000
     18 HAF          0.5440    -2.2330    -0.0110 ha         1 BZ3       0.129000
     19 HNAG        -3.0360     1.7910     0.0290 hn         1 BZ3       0.347000
     20 HAB         -4.3350    -0.4660    -0.0010 h4         1 BZ3       0.210000
@<TRIPOS>BOND
     1     1     8 1   
     2     1    12 1   
     3     1    13 1   
     4     1    14 1   
     5     2     4 2   
     6     2     7 1   
     7     2    20 1   
     8     3     5 ar  
     9     3     9 ar  
    10     3    15 1   
    11     4    10 1   
    12     4    16 1   
    13     5    11 ar  
    14     5    17 1   
    15     6     9 ar  
    16     6    10 ar  
    17     6    18 1   
    18     7    11 1   
    19     7    19 1   
    20     8     9 1   
    21    10    11 ar  
@<TRIPOS>SUBSTRUCTURE
     1 BZ3         1 TEMP              0 ****  ****    0 ROOT
