@<TRIPOS>MOLECULE
BZ3
   20    21     1     0     0
SMALL
bcc


@<TRIPOS>ATOM
      1 CAA          3.7730     0.1290     0.0250 c3         1 BZ3       0.128700
      2 CAB         -3.1540    -0.3390     0.0030 cc         1 BZ3      -0.105100
      3 CAC          1.1540     1.1450     0.0320 ca         1 BZ3      -0.184000
      4 CAD         -2.2160    -1.3330    -0.0070 cd         1 BZ3      -0.199200
      5 CAE         -0.1450     1.6210     0.0340 ca         1 BZ3      -0.111000
      6 CAF          0.3800    -1.1550     0.0010 ca         1 BZ3      -0.121000
      7 NAG         -2.5420     0.8780     0.0190 na         1 BZ3      -0.175400
      8 OAH          2.6740    -0.7550     0.0130 os         1 BZ3      -0.324900
      9 CAI          1.4190    -0.2370     0.0150 ca         1 BZ3       0.107100
     10 CAJ         -0.9380    -0.6910     0.0040 ca         1 BZ3      -0.061800
     11 CAK         -1.1850     0.7010     0.0200 ca         1 BZ3      -0.080200
     12 HAA          3.7890     0.7570     0.9210 h1         1 BZ3       0.036033
     13 HAAA         4.6670    -0.4900     0.0220 h1         1 BZ3       0.036033
     14 HAAB         3.7960     0.7750    -0.8560 h1         1 BZ3       0.036033
     15 HAC          1.9610     1.8650     0.0430 ha         1 BZ3       0.132000
     16 HAD         -2.4130    -2.3930    -0.0200 ha         1 BZ3       0.156000
     17 HAE         -0.3330     2.6880     0.0460 ha         1 BZ3       0.129000
     18 HAF          0.5950    -2.2170    -0.0120 ha         1 BZ3       0.147000
     19 HNAG        -3.0180     1.7640     0.0290 hn         1 BZ3       0.296700
     20 HAB         -4.2300    -0.4100     0.0010 h4         1 BZ3       0.160000
@<TRIPOS>BOND
     1     1     8 1   
     2     1    12 1   
     3     1    13 1   
     4     1    14 1   
     5     2     4 2   
     6     2     7 1   
     7     2    20 1   
     8     3     5 ar  
     9     3     9 ar  
    10     3    15 1   
    11     4    10 1   
    12     4    16 1   
    13     5    11 ar  
    14     5    17 1   
    15     6     9 ar  
    16     6    10 ar  
    17     6    18 1   
    18     7    11 1   
    19     7    19 1   
    20     8     9 1   
    21    10    11 ar  
@<TRIPOS>SUBSTRUCTURE
     1 BZ3         1 TEMP              0 ****  ****    0 ROOT
