@<TRIPOS>MOLECULE
BZ4
   73    79     1     0     0
SMALL
No Charge or Current Charge


@<TRIPOS>ATOM
      1 C1           3.1700    -3.0660     0.0180 ca         1 BZ4      -0.117300
      2 C2           3.0540    -4.0550     1.0240 ca         1 BZ4      -0.079000
      3 N3           1.9260     4.2610    -3.5440 nt         1 BZ4      -0.598000
      4 C4           2.2680    -5.6260    -0.6350 ca         1 BZ4       0.053100
      5 N5          -2.0350     2.7140     1.3560 n          1 BZ4      -0.387800
      6 C6           2.8310    -3.3860    -1.3220 ca         1 BZ4      -0.104000
      7 C8           3.6430    -1.6630     0.3790 c3         1 BZ4       0.142300
      8 C9           1.7530    -0.1110    -0.2380 c3         1 BZ4       0.078700
      9 C10          2.2540    -0.6720     2.2370 c          1 BZ4       0.557600
     10 C11          1.1860     0.2830     2.7170 cc         1 BZ4       0.169500
     11 C12          2.1660     1.3130    -0.5420 cc         1 BZ4       0.433300
     12 C13          2.5030     3.2150    -1.4570 cd         1 BZ4       0.133500
     13 C14          3.1260     3.2070    -0.2370 cc         1 BZ4       0.187900
     14 C15          2.5600     4.4110    -2.3570 c          1 BZ4       0.544600
     15 C16          0.8410     0.3430     4.0390 cd         1 BZ4       0.180900
     16 C17         -0.3390     1.7460     2.9770 cd         1 BZ4       0.427300
     17 C18         -1.4310     2.7650     2.7230 c3         1 BZ4       0.079700
     18 C19         -1.4250     3.4670     0.3010 c          1 BZ4       0.559600
     19 C20         -3.1700     1.7650     1.2110 c3         1 BZ4       0.165300
     20 C21         -1.8100    -2.3240     1.4930 ca         1 BZ4       0.064100
     21 C22         -2.4710    -1.7640     2.5920 ca         1 BZ4      -0.102000
     22 C23         -2.9310    -0.4350     2.4820 ca         1 BZ4      -0.103000
     23 C24         -2.7330     0.3040     1.2850 ca         1 BZ4      -0.112300
     24 C25         -2.0770    -0.3070     0.1900 ca         1 BZ4      -0.066000
     25 C26         -1.6240    -1.6230     0.3360 ca         1 BZ4       0.034100
     26 C27         -1.8610     3.3090    -1.1380 cc         1 BZ4       0.159500
     27 C28         -2.7070     2.8040    -3.0260 cd         1 BZ4       0.422300
     28 C29         -1.2760     4.0670    -2.1150 cd         1 BZ4       0.191900
     29 C3           2.6000    -5.3270     0.6560 ca         1 BZ4       0.046100
     30 C30         -3.5360     2.1730    -4.1150 c3         1 BZ4       0.102300
     31 C31         -0.5810    -3.5540     0.1410 c5         1 BZ4       0.365600
     32 C5           2.3700    -4.6770    -1.6580 ca         1 BZ4      -0.105000
     33 C7           2.0080    -7.4550     0.5760 c5         1 BZ4       0.372600
     34 N1           2.5450    -0.7790     0.8400 n          1 BZ4      -0.392800
     35 N2           1.8820     1.9830    -1.6520 nd         1 BZ4      -0.690000
     36 N4           0.4230     1.2030     2.0360 nc         1 BZ4      -0.657000
     37 N6          -2.7930     2.4880    -1.7390 nc         1 BZ4      -0.658000
     38 O1           1.8240    -6.9000    -0.7750 os         1 BZ4      -0.345100
     39 O10         -0.9730    -2.3500    -0.6070 os         1 BZ4      -0.347100
     40 O2           2.4070    -6.3760     1.4950 os         1 BZ4      -0.340100
     41 O3           2.8810    -1.3590     3.0380 o          1 BZ4      -0.606100
     42 O4           2.9400     1.9960     0.3510 os         1 BZ4      -0.217000
     43 O5           3.1240     5.4610    -2.0930 o          1 BZ4      -0.609100
     44 O6          -0.1400     1.2660     4.2410 os         1 BZ4      -0.255000
     45 O7          -0.5290     4.2590     0.5820 o          1 BZ4      -0.599100
     46 O8          -1.7920     3.7690    -3.3380 os         1 BZ4      -0.224000
     47 O9          -1.3040    -3.5810     1.4210 os         1 BZ4      -0.339100
     48 Cl1         -4.9160     3.2610    -4.6110 cl         1 BZ4      -0.248000
     49 H2           3.3020    -3.8400     2.0600 ha         1 BZ4       0.153000
     50 H322         1.4830     3.3770    -3.7570 hn         1 BZ4       0.322500
     51 H321         1.9310     5.0140    -4.2150 hn         1 BZ4       0.322500
     52 H6           2.9210    -2.6340    -2.1030 ha         1 BZ4       0.122000
     53 H81          4.4230    -1.7280     1.1490 h1         1 BZ4       0.073700
     54 H82          4.1210    -1.2070    -0.4990 h1         1 BZ4       0.073700
     55 H92          0.6860    -0.1400    -0.0030 h1         1 BZ4       0.097200
     56 H91          1.8610    -0.6830    -1.1660 h1         1 BZ4       0.097200
     57 H14          3.7120     3.9480     0.2890 h4         1 BZ4       0.085100
     58 H16          1.2040    -0.2070     4.8970 h4         1 BZ4       0.084100
     59 H181        -1.0220     3.7630     2.9200 h1         1 BZ4       0.081700
     60 H182        -2.2190     2.6040     3.4690 h1         1 BZ4       0.081700
     61 H202        -3.8640     1.9540     2.0400 h1         1 BZ4       0.068700
     62 H201        -3.7700     1.9480     0.3190 h1         1 BZ4       0.068700
     63 H23         -3.4300     0.0270     3.3320 ha         1 BZ4       0.113000
     64 H25         -1.9000     0.2290    -0.7370 ha         1 BZ4       0.157000
     65 H29         -0.5090     4.8280    -2.0620 h4         1 BZ4       0.089100
     66 H301        -2.9120     1.9880    -4.9970 h1         1 BZ4       0.096700
     67 H302        -3.9570     1.2250    -3.7640 h1         1 BZ4       0.096700
     68 H312        -0.8070    -4.4540    -0.4420 h2         1 BZ4       0.069200
     69 H311         0.4920    -3.4980     0.3500 h2         1 BZ4       0.069200
     70 H5           2.1000    -4.9290    -2.6810 ha         1 BZ4       0.136000
     71 H72          1.0720    -7.9090     0.9220 h2         1 BZ4       0.066700
     72 H71          2.8030    -8.2100     0.5460 h2         1 BZ4       0.066700
     73 H22         -2.6160    -2.3360     3.5050 ha         1 BZ4       0.136000
@<TRIPOS>BOND
     1     1     2 ar  
     2     1     6 ar  
     3     1     7 1   
     4     2    29 ar  
     5     2    49 1   
     6     3    14 1   
     7     3    50 1   
     8     3    51 1   
     9     4    29 ar  
    10     4    32 ar  
    11     4    38 1   
    12     5    17 1   
    13     5    18 1   
    14     5    19 1   
    15     6    32 ar  
    16     6    52 1   
    17     7    34 1   
    18     7    53 1   
    19     7    54 1   
    20     8    11 1   
    21     8    34 1   
    22     8    55 1   
    23     8    56 1   
    24     9    10 1   
    25     9    34 1   
    26     9    41 2   
    27    10    15 2   
    28    10    36 1   
    29    11    35 2   
    30    11    42 1   
    31    12    13 2   
    32    12    14 1   
    33    12    35 1   
    34    13    42 1   
    35    13    57 1   
    36    14    43 2   
    37    15    44 1   
    38    15    58 1   
    39    16    17 1   
    40    16    36 2   
    41    16    44 1   
    42    17    59 1   
    43    17    60 1   
    44    18    26 1   
    45    18    45 2   
    46    19    23 1   
    47    19    61 1   
    48    19    62 1   
    49    20    21 ar  
    50    20    25 ar  
    51    20    47 1   
    52    21    22 ar  
    53    21    73 1   
    54    22    23 ar  
    55    22    63 1   
    56    23    24 ar  
    57    24    25 ar  
    58    24    64 1   
    59    25    39 1   
    60    26    28 2   
    61    26    37 1   
    62    27    30 1   
    63    27    37 2   
    64    27    46 1   
    65    28    46 1   
    66    28    65 1   
    67    29    40 1   
    68    30    48 1   
    69    30    66 1   
    70    30    67 1   
    71    31    39 1   
    72    31    47 1   
    73    31    68 1   
    74    31    69 1   
    75    32    70 1   
    76    33    38 1   
    77    33    40 1   
    78    33    71 1   
    79    33    72 1   
@<TRIPOS>SUBSTRUCTURE
     1 BZ4         1 TEMP              0 ****  ****    0 ROOT
