@<TRIPOS>MOLECULE
BZ4
   73    79     1     0     0
SMALL
bcc


@<TRIPOS>ATOM
      1 C1           3.2270    -2.7880     0.0370 ca         1 BZ4      -0.117300
      2 C2           3.0360    -3.7060     1.0860 ca         1 BZ4      -0.097000
      3 N3           1.2570     2.6890    -4.3380 nt         1 BZ4      -0.665000
      4 C4           2.4880    -5.3700    -0.5780 ca         1 BZ4       0.053100
      5 N5          -1.9570     2.5650     1.6740 n          1 BZ4      -0.454800
      6 C6           3.0410    -3.1850    -1.2790 ca         1 BZ4      -0.122000
      7 C8           3.5970    -1.3620     0.3590 c3         1 BZ4       0.142300
      8 C9           1.4310    -0.2820     0.0180 c3         1 BZ4       0.078700
      9 C10          2.4300    -0.4530     2.2920 c          1 BZ4       0.624600
     10 C11          1.3140     0.3040     2.8990 cc         1 BZ4       0.169500
     11 C12          1.6580     1.0200    -0.6680 cc         1 BZ4       0.477700
     12 C13          1.7430     2.6430    -2.0200 cd         1 BZ4       0.133500
     13 C14          2.1360     3.1040    -0.8120 cc         1 BZ4       0.232300
     14 C15          1.6670     3.4020    -3.2800 c          1 BZ4       0.611600
     15 C16          1.1080     0.3960     4.2350 cd         1 BZ4       0.225300
     16 C17         -0.3950     1.5130     3.1920 cd         1 BZ4       0.471700
     17 C18         -1.5950     2.3900     3.0610 c3         1 BZ4       0.079700
     18 C19         -1.2020     3.4330     0.9620 c          1 BZ4       0.626600
     19 C20         -3.0820     1.7620     1.2000 c3         1 BZ4       0.165300
     20 C21         -2.0790    -2.3820     1.1430 ca         1 BZ4       0.064100
     21 C22         -2.7310    -1.8910     2.2440 ca         1 BZ4      -0.120000
     22 C23         -3.0740    -0.5330     2.2170 ca         1 BZ4      -0.121000
     23 C24         -2.7650     0.2870     1.1410 ca         1 BZ4      -0.112300
     24 C25         -2.1150    -0.2460     0.0160 ca         1 BZ4      -0.084000
     25 C26         -1.7950    -1.5780     0.0490 ca         1 BZ4       0.034100
     26 C27         -1.3940     3.6030    -0.4960 cc         1 BZ4       0.159500
     27 C28         -1.8060     3.2910    -2.5480 cd         1 BZ4       0.466700
     28 C29         -0.9540     4.6910    -1.1750 cd         1 BZ4       0.236300
     29 C3           2.6690    -4.9810     0.7430 ca         1 BZ4       0.046100
     30 C30         -2.2340     2.7830    -3.8650 c3         1 BZ4       0.025700
     31 C31         -0.8310    -3.5430    -0.2660 c5         1 BZ4       0.319200
     32 C5           2.6660    -4.4930    -1.6160 ca         1 BZ4      -0.123000
     33 C7           2.2400    -7.1620     0.7120 c5         1 BZ4       0.326200
     34 N1           2.4770    -0.6350     0.9510 n          1 BZ4      -0.459800
     35 N2           1.4450     1.3010    -1.9050 nd         1 BZ4      -0.690000
     36 N4           0.3370     1.0350     2.2580 nc         1 BZ4      -0.657000
     37 N6          -1.9360     2.7200    -1.4040 nc         1 BZ4      -0.658000
     38 O1           2.1100    -6.6700    -0.6160 os         1 BZ4      -0.321900
     39 O10         -1.1820    -2.3260    -0.9060 os         1 BZ4      -0.323900
     40 O2           2.4100    -6.0320     1.5580 os         1 BZ4      -0.316900
     41 O3           3.2920    -0.8960     3.0410 o          1 BZ4      -0.606100
     42 O4           2.0860     2.0710     0.0470 os         1 BZ4      -0.305800
     43 O5           1.9580     4.5900    -3.3160 o          1 BZ4      -0.609100
     44 O6           0.0180     1.1650     4.4230 os         1 BZ4      -0.343800
     45 O7          -0.3480     4.1260     1.4970 o          1 BZ4      -0.599100
     46 O8          -1.2260     4.4980    -2.4750 os         1 BZ4      -0.312800
     47 O9          -1.6440    -3.6440     0.8950 os         1 BZ4      -0.315900
     48 CL1         -3.6510     3.7150    -4.4630 cl         1 BZ4      -0.171400
     49 H2           3.1780    -3.4170     2.1190 ha         1 BZ4       0.171000
     50 H322         1.1060     1.6960    -4.2670 hn         1 BZ4       0.322500
     51 H321         1.2460     3.1020    -5.2570 hn         1 BZ4       0.322500
     52 H6           3.1940    -2.4680    -2.0770 ha         1 BZ4       0.140000
     53 H81          4.4440    -1.3220     1.0400 h1         1 BZ4       0.073700
     54 H82          3.8930    -0.8400    -0.5530 h1         1 BZ4       0.073700
     55 H92          0.4650    -0.2510     0.5120 h1         1 BZ4       0.097200
     56 H91          1.3650    -1.0520    -0.7520 h1         1 BZ4       0.097200
     57 H14          2.4640     4.0590    -0.4380 h4         1 BZ4       0.085100
     58 H16          1.6020     0.0020     5.1060 h4         1 BZ4       0.084100
     59 H181        -1.3990     3.3510     3.5390 h1         1 BZ4       0.081700
     60 H182        -2.4350     1.9470     3.5980 h1         1 BZ4       0.081700
     61 H202        -3.9100     1.9250     1.8940 h1         1 BZ4       0.068700
     62 H201        -3.4060     2.1290     0.2330 h1         1 BZ4       0.068700
     63 H23         -3.5940    -0.1170     3.0720 ha         1 BZ4       0.131000
     64 H25         -1.8780     0.3790    -0.8360 ha         1 BZ4       0.175000
     65 H29         -0.4740     5.6110    -0.8890 h4         1 BZ4       0.089100
     66 H301        -1.4470     2.8760    -4.6090 h1         1 BZ4       0.096700
     67 H302        -2.5280     1.7420    -3.7720 h1         1 BZ4       0.096700
     68 H312        -1.0260    -4.3830    -0.9300 h2         1 BZ4       0.069200
     69 H311         0.2280    -3.5180     0.0230 h2         1 BZ4       0.069200
     70 H5           2.5190    -4.7880    -2.6460 ha         1 BZ4       0.154000
     71 H72          1.3380    -7.7030     0.9960 h2         1 BZ4       0.066700
     72 H71          3.1170    -7.8140     0.7820 h2         1 BZ4       0.066700
     73 H22         -2.9730    -2.5140     3.0940 ha         1 BZ4       0.154000
@<TRIPOS>BOND
     1     1     2 ar  
     2     1     6 ar  
     3     1     7 1   
     4     2    29 ar  
     5     2    49 1   
     6     3    14 1   
     7     3    50 1   
     8     3    51 1   
     9     4    29 ar  
    10     4    32 ar  
    11     4    38 1   
    12     5    17 1   
    13     5    18 1   
    14     5    19 1   
    15     6    32 ar  
    16     6    52 1   
    17     7    34 1   
    18     7    53 1   
    19     7    54 1   
    20     8    11 1   
    21     8    34 1   
    22     8    55 1   
    23     8    56 1   
    24     9    10 1   
    25     9    34 1   
    26     9    41 2   
    27    10    15 2   
    28    10    36 1   
    29    11    35 2   
    30    11    42 1   
    31    12    13 2   
    32    12    14 1   
    33    12    35 1   
    34    13    42 1   
    35    13    57 1   
    36    14    43 2   
    37    15    44 1   
    38    15    58 1   
    39    16    17 1   
    40    16    36 2   
    41    16    44 1   
    42    17    59 1   
    43    17    60 1   
    44    18    26 1   
    45    18    45 2   
    46    19    23 1   
    47    19    61 1   
    48    19    62 1   
    49    20    21 ar  
    50    20    25 ar  
    51    20    47 1   
    52    21    22 ar  
    53    21    73 1   
    54    22    23 ar  
    55    22    63 1   
    56    23    24 ar  
    57    24    25 ar  
    58    24    64 1   
    59    25    39 1   
    60    26    28 2   
    61    26    37 1   
    62    27    30 1   
    63    27    37 2   
    64    27    46 1   
    65    28    46 1   
    66    28    65 1   
    67    29    40 1   
    68    30    48 1   
    69    30    66 1   
    70    30    67 1   
    71    31    39 1   
    72    31    47 1   
    73    31    68 1   
    74    31    69 1   
    75    32    70 1   
    76    33    38 1   
    77    33    40 1   
    78    33    71 1   
    79    33    72 1   
@<TRIPOS>SUBSTRUCTURE
     1 BZ4         1 TEMP              0 ****  ****    0 ROOT
