@<TRIPOS>MOLECULE
BZ5
   38    40     1     0     0
SMALL
No Charge or Current Charge


@<TRIPOS>ATOM
      1 CAK          3.9860    -1.3240     1.4920 cc         1 BZ5      -0.156200
      2 CAT          3.2080    -0.7420     0.4240 ca         1 BZ5      -0.082800
      3 CAI          1.8600    -1.0090     0.1400 ca         1 BZ5      -0.071000
      4 CAH          1.2410    -0.3510    -0.9460 ca         1 BZ5      -0.064300
      5 CAR          1.9930     0.5550    -1.7320 ca         1 BZ5      -0.079000
      6 CAJ          3.3460     0.8100    -1.4320 ca         1 BZ5      -0.099000
      7 CAU          3.9320     0.1470    -0.3440 ca         1 BZ5      -0.154000
      8 SAO          5.6140     0.3320     0.1910 ss         1 BZ5      -0.005600
      9 CAS          5.2870    -0.8480     1.4950 cd         1 BZ5      -0.170400
     10 CAQ         -1.4040     1.4490    -0.2660 c          1 BZ5       0.567100
     11 CAX         -2.5950    -0.8570    -0.1450 c6         1 BZ5       0.033000
     12 CAP         -2.4130    -2.4070     0.1550 c          1 BZ5       0.700000
     13 CA0         -1.2290    -0.0920    -0.1970 c6         1 BZ5      -0.142700
     14 OAC         -1.6700    -2.7560     1.0630 o          1 BZ5      -0.703000
     15 OAB         -2.9460    -3.1870    -0.6250 o          1 BZ5      -0.703000
     16 OAF         -3.2490    -0.7000    -1.4280 oh         1 BZ5      -0.704000
     17 CAM         -3.5080    -0.2480     0.9600 c6         1 BZ5      -0.068400
     18 CAV         -3.7750     1.2580     0.7480 c6         1 BZ5       0.158300
     19 OAD         -4.6030     1.7720     1.7960 oh         1 BZ5      -0.664000
     20 CAW         -2.4630     2.0830     0.6880 c6         1 BZ5       0.017300
     21 OAE         -2.7430     3.4730     0.3580 oh         1 BZ5      -0.673000
     22 CAA         -0.2240    -0.6320    -1.2740 c3         1 BZ5      -0.020100
     23 HAK          3.6100    -2.0470     2.2130 ha         1 BZ5       0.202000
     24 HAS          6.0830    -1.1140     2.1830 h4         1 BZ5       0.204000
     25 HAI          1.3010    -1.7160     0.7500 ha         1 BZ5       0.136000
     26 HAR          1.5270     1.0660    -2.5710 ha         1 BZ5       0.121000
     27 HAA1        -0.4830    -0.2310    -2.2610 hc         1 BZ5       0.072700
     28 HAA2        -0.3330    -1.7180    -1.3790 hc         1 BZ5       0.072700
     29 HAJ          3.9230     1.5080    -2.0330 ha         1 BZ5       0.110000
     30 HA0         -0.7920    -0.2650     0.7950 hc         1 BZ5       0.085700
     31 HAW         -1.9920     2.0220     1.6810 h1         1 BZ5       0.084700
     32 HAF         -3.4630    -1.6290    -1.6990 ho         1 BZ5       0.482000
     33 HAM1        -4.4660    -0.7860     0.9800 hc         1 BZ5       0.065200
     34 HAM2        -3.0520    -0.4060     1.9470 hc         1 BZ5       0.065200
     35 HAV         -4.2940     1.3810    -0.2140 h1         1 BZ5       0.042700
     36 HAD         -4.5160     2.7500     1.7250 ho         1 BZ5       0.440000
     37 HAE         -1.9710     3.7960    -0.1660 ho         1 BZ5       0.458000
     38 OAN         -0.6840     2.1690    -0.9540 o          1 BZ5      -0.556100
@<TRIPOS>BOND
     1     1     2 1   
     2     1     9 2   
     3     1    23 1   
     4     2     3 ar  
     5     2     7 ar  
     6     3     4 ar  
     7     3    25 1   
     8     4     5 ar  
     9     4    22 1   
    10     5     6 ar  
    11     5    26 1   
    12     6     7 ar  
    13     6    29 1   
    14     7     8 1   
    15     8     9 1   
    16     9    24 1   
    17    10    13 1   
    18    10    20 1   
    19    10    38 2   
    20    11    12 1   
    21    11    13 1   
    22    11    16 1   
    23    11    17 1   
    24    12    14 1   
    25    12    15 1   
    26    13    22 1   
    27    13    30 1   
    28    16    32 1   
    29    17    18 1   
    30    17    33 1   
    31    17    34 1   
    32    18    19 1   
    33    18    20 1   
    34    18    35 1   
    35    19    36 1   
    36    20    21 1   
    37    20    31 1   
    38    21    37 1   
    39    22    27 1   
    40    22    28 1   
@<TRIPOS>SUBSTRUCTURE
     1 BZ5         1 TEMP              0 ****  ****    0 ROOT
