@<TRIPOS>MOLECULE
BZ5
   38    40     1     0     0
SMALL
bcc


@<TRIPOS>ATOM
      1 CAK          4.0040    -1.1080     1.5520 cc         1 BZ5      -0.106200
      2 CAT          3.1680    -0.6550     0.4770 ca         1 BZ5      -0.082800
      3 CAI          1.8320    -0.9650     0.2040 ca         1 BZ5      -0.089000
      4 CAH          1.1950    -0.4190    -0.8970 ca         1 BZ5      -0.064300
      5 CAR          1.9090     0.4480    -1.7390 ca         1 BZ5      -0.097000
      6 CAJ          3.2320     0.7690    -1.5010 ca         1 BZ5      -0.117000
      7 CAU          3.8560     0.2150    -0.3870 ca         1 BZ5      -0.027100
      8 SAO          5.4920     0.4550     0.1360 ss         1 BZ5      -0.132500
      9 CAS          5.2530    -0.5980     1.4900 cd         1 BZ5      -0.120400
     10 CAQ         -1.3420     1.2890    -0.2160 c          1 BZ5       0.567100
     11 CAX         -2.6320    -0.8020    -0.2210 c6         1 BZ5       0.009800
     12 CAP         -2.5550    -2.3430    -0.0250 c          1 BZ5       0.910600
     13 CA0         -1.2050    -0.2050    -0.1310 c6         1 BZ5      -0.142700
     14 OAC         -2.0700    -2.7650     1.0320 o          1 BZ5      -0.808300
     15 OAB         -3.0130    -3.0050    -0.9820 o          1 BZ5      -0.808300
     16 OAF         -3.1640    -0.5370    -1.4930 oh         1 BZ5      -0.641800
     17 CAM         -3.5270    -0.1990     0.8660 c6         1 BZ5      -0.068400
     18 CAV         -3.6110     1.3130     0.7620 c6         1 BZ5       0.135100
     19 OAD         -4.4360     1.7910     1.7960 oh         1 BZ5      -0.601800
     20 CAW         -2.2020     1.9220     0.8580 c6         1 BZ5      -0.005900
     21 OAE         -2.2330     3.3160     0.7610 oh         1 BZ5      -0.610800
     22 CAA         -0.2440    -0.7650    -1.1790 c3         1 BZ5      -0.020100
     23 HAK          3.6710    -1.7820     2.3300 ha         1 BZ5       0.152000
     24 HAS          6.0700    -0.7780     2.1720 h4         1 BZ5       0.154000
     25 HAI          1.2990    -1.6470     0.8580 ha         1 BZ5       0.154000
     26 HAR          1.4120     0.8750    -2.6000 ha         1 BZ5       0.139000
     27 HAA1        -0.5290    -0.4170    -2.1710 hc         1 BZ5       0.072700
     28 HAA2        -0.3380    -1.8540    -1.1970 hc         1 BZ5       0.072700
     29 HAJ          3.7650     1.4350    -2.1660 ha         1 BZ5       0.128000
     30 HA0         -0.8340    -0.4430     0.8730 hc         1 BZ5       0.085700
     31 HAW         -1.7820     1.6440     1.8360 h1         1 BZ5       0.084700
     32 HAF         -3.3330    -1.4360    -1.8380 ho         1 BZ5       0.443000
     33 HAM1        -4.5310    -0.6250     0.7810 hc         1 BZ5       0.065200
     34 HAM2        -3.1400    -0.4750     1.8500 hc         1 BZ5       0.065200
     35 HAV         -4.0270     1.5880    -0.2190 h1         1 BZ5       0.042700
     36 HAD         -4.5470     2.7400     1.6760 ho         1 BZ5       0.401000
     37 HAE         -1.9480     3.5570    -0.1300 ho         1 BZ5       0.419000
     38 OAN         -0.8730     1.9720    -1.0990 o          1 BZ5      -0.556100
@<TRIPOS>BOND
     1     1     2 1   
     2     1     9 2   
     3     1    23 1   
     4     2     3 ar  
     5     2     7 ar  
     6     3     4 ar  
     7     3    25 1   
     8     4     5 ar  
     9     4    22 1   
    10     5     6 ar  
    11     5    26 1   
    12     6     7 ar  
    13     6    29 1   
    14     7     8 1   
    15     8     9 1   
    16     9    24 1   
    17    10    13 1   
    18    10    20 1   
    19    10    38 2   
    20    11    12 1   
    21    11    13 1   
    22    11    16 1   
    23    11    17 1   
    24    12    14 1   
    25    12    15 1   
    26    13    22 1   
    27    13    30 1   
    28    16    32 1   
    29    17    18 1   
    30    17    33 1   
    31    17    34 1   
    32    18    19 1   
    33    18    20 1   
    34    18    35 1   
    35    19    36 1   
    36    20    21 1   
    37    20    31 1   
    38    21    37 1   
    39    22    27 1   
    40    22    28 1   
@<TRIPOS>SUBSTRUCTURE
     1 BZ5         1 TEMP              0 ****  ****    0 ROOT
