@<TRIPOS>MOLECULE
BZ6
   43    46     1     0     0
SMALL
No Charge or Current Charge


@<TRIPOS>ATOM
      1 C01          6.1750     1.9600    -0.1340 c3         1 BZ6       0.147900
      2 C03          3.7570     1.7780    -0.5890 ca         1 BZ6       0.150100
      3 C04          2.6750     2.1450    -1.3980 ca         1 BZ6      -0.178000
      4 C05          1.3830     1.6640    -1.1260 ca         1 BZ6      -0.051000
      5 C06          1.1410     0.7790    -0.0460 ca         1 BZ6      -0.160500
      6 C07         -0.2450     0.3130     0.2150 cc         1 BZ6       0.346500
      7 C10         -3.6910     0.6210     0.0070 ca         1 BZ6       0.018800
      8 C11         -4.1860     1.8880     0.3780 ca         1 BZ6      -0.115500
      9 C12         -5.5430     2.2040     0.1870 ca         1 BZ6      -0.093500
     10 C13         -6.4120     1.2550    -0.3790 ca         1 BZ6      -0.113000
     11 C14         -5.9250    -0.0080    -0.7550 ca         1 BZ6      -0.093500
     12 C15         -4.5680    -0.3240    -0.5640 ca         1 BZ6      -0.115500
     13 C16         -2.0480    -0.7700     1.0060 cd         1 BZ6      -0.139000
     14 C17         -0.6810    -0.7930     1.0240 cc         1 BZ6      -0.230300
     15 C18          0.1560    -1.8530     1.6990 c3         1 BZ6       0.163900
     16 C20          2.3510    -2.9950     1.0920 cc         1 BZ6      -0.223000
     17 C21          2.8180    -3.5820    -0.0550 cd         1 BZ6       0.224900
     18 C23          0.8280    -2.8940    -0.5220 cc         1 BZ6       0.385400
     19 C24          2.2390     0.4500     0.7840 ca         1 BZ6      -0.051000
     20 C25          3.5310     0.9320     0.5130 ca         1 BZ6      -0.178000
     21 N08         -1.2590     1.0020    -0.2870 nd         1 BZ6      -0.509800
     22 N09         -2.3420     0.3140     0.1980 na         1 BZ6       0.241000
     23 N19          1.0800    -2.5510     0.7900 na         1 BZ6      -0.167500
     24 N22          1.8680    -3.5210    -1.0540 nd         1 BZ6      -0.674000
     25 O02          5.0030     2.2810    -0.9040 os         1 BZ6      -0.339100
     26 H1           6.0640     2.2950     0.9050 h1         1 BZ6       0.041367
     27 H2           6.3610     0.8790    -0.1390 h1         1 BZ6       0.041367
     28 H3           7.0560     2.4580    -0.5590 h1         1 BZ6       0.041367
     29 H4           2.8370     2.8090    -2.2430 ha         1 BZ6       0.124000
     30 H5           0.5730     1.9710    -1.7840 ha         1 BZ6       0.118500
     31 H6          -3.5170     2.6260     0.8150 ha         1 BZ6       0.131500
     32 H7          -5.9200     3.1820     0.4760 ha         1 BZ6       0.119500
     33 H8          -7.4620     1.5000    -0.5270 ha         1 BZ6       0.120000
     34 H9          -6.5980    -0.7410    -1.1960 ha         1 BZ6       0.119500
     35 H10         -4.1980    -1.3030    -0.8630 ha         1 BZ6       0.131500
     36 H11         -2.7950    -1.4120     1.4590 h4         1 BZ6       0.158000
     37 H12          0.7070    -1.4250     2.5440 h1         1 BZ6       0.061700
     38 H13         -0.5170    -2.6090     2.1220 h1         1 BZ6       0.061700
     39 H15          3.7830    -4.0470    -0.2150 h4         1 BZ6       0.036100
     40 H16         -0.1100    -2.6660    -1.0160 h5         1 BZ6       0.048100
     41 H17          2.1130    -0.1520     1.6740 ha         1 BZ6       0.118500
     42 H18          4.3410     0.6460     1.1780 ha         1 BZ6       0.124000
     43 H14          2.8170    -2.8660     2.0610 h4         1 BZ6       0.158000
@<TRIPOS>BOND
     1     1    25 1   
     2     1    26 1   
     3     1    27 1   
     4     1    28 1   
     5     2     3 ar  
     6     2    20 ar  
     7     2    25 1   
     8     3     4 ar  
     9     3    29 1   
    10     4     5 ar  
    11     4    30 1   
    12     5     6 1   
    13     5    19 ar  
    14     6    14 1   
    15     6    21 2   
    16     7     8 ar  
    17     7    12 ar  
    18     7    22 1   
    19     8     9 ar  
    20     8    31 1   
    21     9    10 ar  
    22     9    32 1   
    23    10    11 ar  
    24    10    33 1   
    25    11    12 ar  
    26    11    34 1   
    27    12    35 1   
    28    13    14 2   
    29    13    22 1   
    30    13    36 1   
    31    14    15 1   
    32    15    23 1   
    33    15    37 1   
    34    15    38 1   
    35    16    17 2   
    36    16    23 1   
    37    16    43 1   
    38    17    24 1   
    39    17    39 1   
    40    18    23 1   
    41    18    24 2   
    42    18    40 1   
    43    19    20 ar  
    44    19    41 1   
    45    20    42 1   
    46    21    22 1   
@<TRIPOS>SUBSTRUCTURE
     1 BZ6         1 TEMP              0 ****  ****    0 ROOT
