@<TRIPOS>MOLECULE
BZ6
   43    46     1     0     0
SMALL
bcc


@<TRIPOS>ATOM
      1 C01          5.9610     2.3440     0.4180 c3         1 BZ6       0.124700
      2 C03          3.7410     1.8480    -0.2540 ca         1 BZ6       0.150100
      3 C04          2.7590     1.9250    -1.2450 ca         1 BZ6      -0.196000
      4 C05          1.5000     1.4040    -1.0220 ca         1 BZ6      -0.069000
      5 C06          1.1780     0.7900     0.1920 ca         1 BZ6      -0.160500
      6 C07         -0.1610     0.2380     0.4170 cc         1 BZ6       0.411800
      7 C10         -3.5890     0.5870     0.0870 ca         1 BZ6       0.018800
      8 C11         -3.7890     1.8600    -0.4410 ca         1 BZ6      -0.133500
      9 C12         -5.0770     2.3010    -0.6990 ca         1 BZ6      -0.111500
     10 C13         -6.1720     1.4900    -0.4330 ca         1 BZ6      -0.131000
     11 C14         -5.9640     0.2220     0.0920 ca         1 BZ6      -0.111500
     12 C15         -4.6810    -0.2340     0.3510 ca         1 BZ6      -0.133500
     13 C16         -1.8940    -1.0180     0.9370 cd         1 BZ6      -0.106300
     14 C17         -0.5260    -1.0020     1.0020 cc         1 BZ6      -0.295600
     15 C18          0.3390    -2.1170     1.4880 c3         1 BZ6       0.134600
     16 C20          2.2430    -2.6110    -0.0960 cc         1 BZ6      -0.255600
     17 C21          2.3790    -3.4790    -1.1410 cd         1 BZ6       0.290200
     18 C23          0.4260    -3.7930    -0.3600 cc         1 BZ6       0.385400
     19 C24          2.1590     0.7340     1.1750 ca         1 BZ6      -0.069000
     20 C25          3.4310     1.2500     0.9650 ca         1 BZ6      -0.196000
     21 N08         -1.2330     0.9020     0.0330 nd         1 BZ6      -0.509800
     22 N09         -2.2790     0.1390     0.3510 na         1 BZ6       0.190300
     23 N19          0.9890    -2.8300     0.4000 na         1 BZ6      -0.188900
     24 N22          1.2370    -4.2140    -1.2960 nd         1 BZ6      -0.674000
     25 O02          4.9400     2.3720    -0.5610 os         1 BZ6      -0.315900
     26 H1           5.6830     2.9050     1.3130 h1         1 BZ6       0.041367
     27 H2           6.2210     1.3230     0.7080 h1         1 BZ6       0.041367
     28 H3           6.8330     2.8130    -0.0310 h1         1 BZ6       0.041367
     29 H4           2.9950     2.3920    -2.1940 ha         1 BZ6       0.142000
     30 H5           0.7570     1.4640    -1.8060 ha         1 BZ6       0.136500
     31 H6          -2.9440     2.5010    -0.6480 ha         1 BZ6       0.149500
     32 H7          -5.2230     3.2920    -1.1100 ha         1 BZ6       0.137500
     33 H8          -7.1750     1.8420    -0.6320 ha         1 BZ6       0.138000
     34 H9          -6.8050    -0.4250     0.3020 ha         1 BZ6       0.137500
     35 H10         -4.5520    -1.2300     0.7530 ha         1 BZ6       0.149500
     36 H11         -2.5900    -1.7710     1.2650 h4         1 BZ6       0.176000
     37 H12          1.1170    -1.7700     2.1660 h1         1 BZ6       0.061700
     38 H13         -0.2630    -2.8320     2.0490 h1         1 BZ6       0.061700
     39 H15          3.2380    -3.6130    -1.7810 h4         1 BZ6       0.036100
     40 H16         -0.5750    -4.1550    -0.1770 h5         1 BZ6       0.048100
     41 H17          1.9370     0.2960     2.1400 ha         1 BZ6       0.136500
     42 H18          4.1550     1.1820     1.7650 ha         1 BZ6       0.142000
     43 H14          2.9120    -1.8820     0.3280 h4         1 BZ6       0.176000
@<TRIPOS>BOND
     1     1    25 1   
     2     1    26 1   
     3     1    27 1   
     4     1    28 1   
     5     2     3 ar  
     6     2    20 ar  
     7     2    25 1   
     8     3     4 ar  
     9     3    29 1   
    10     4     5 ar  
    11     4    30 1   
    12     5     6 1   
    13     5    19 ar  
    14     6    14 1   
    15     6    21 2   
    16     7     8 ar  
    17     7    12 ar  
    18     7    22 1   
    19     8     9 ar  
    20     8    31 1   
    21     9    10 ar  
    22     9    32 1   
    23    10    11 ar  
    24    10    33 1   
    25    11    12 ar  
    26    11    34 1   
    27    12    35 1   
    28    13    14 2   
    29    13    22 1   
    30    13    36 1   
    31    14    15 1   
    32    15    23 1   
    33    15    37 1   
    34    15    38 1   
    35    16    17 2   
    36    16    23 1   
    37    16    43 1   
    38    17    24 1   
    39    17    39 1   
    40    18    23 1   
    41    18    24 2   
    42    18    40 1   
    43    19    20 ar  
    44    19    41 1   
    45    20    42 1   
    46    21    22 1   
@<TRIPOS>SUBSTRUCTURE
     1 BZ6         1 TEMP              0 ****  ****    0 ROOT
