@<TRIPOS>MOLECULE
BZ7
   78    80     1     0     0
SMALL
No Charge or Current Charge


@<TRIPOS>ATOM
      1 N            3.3670     0.2530    -0.3360 ns         1 BZ7      -0.493900
      2 CA           2.1630    -0.4390    -0.8510 c3         1 BZ7       0.045700
      3 CAA          9.4610     1.4530     1.6750 ca         1 BZ7      -0.110000
      4 CAB          8.3570     1.0020     0.9310 ca         1 BZ7      -0.107500
      5 CAC          7.8350     1.7900    -0.1130 ca         1 BZ7      -0.084300
      6 CAD          8.4260     3.0360    -0.4030 ca         1 BZ7      -0.107500
      7 CAE          9.5300     3.4860     0.3420 ca         1 BZ7      -0.110000
      8 CAF         10.0480     2.6950     1.3800 ca         1 BZ7      -0.111000
      9 CAG          6.6360     1.3040    -0.9160 c3         1 BZ7      -0.020100
     10 CAH          5.2980     1.7690    -0.3010 c3         1 BZ7      -0.153400
     11 CAI          4.1030     1.1740    -1.0480 c          1 BZ7       0.606100
     12 CAS          5.5440    -3.7770     0.1040 c3         1 BZ7       0.138400
     13 CAT          5.3680    -5.1320    -0.6270 c3         1 BZ7      -0.104100
     14 CAU          5.9930    -4.0460     1.5590 c3         1 BZ7      -0.104100
     15 CAV          6.6170    -2.9130    -0.6020 c3         1 BZ7      -0.104100
     16 CAX         -1.6440     0.3500    -0.6810 c3         1 BZ7       0.080000
     17 CAY         -2.1740    -0.1590     0.6780 c3         1 BZ7       0.079000
     18 C            0.8620     0.2760    -0.3750 c          1 BZ7       0.586100
     19 O            0.8480     1.1560     0.4780 o          1 BZ7      -0.602100
     20 NAN         -0.2990    -0.1540    -0.9880 ns         1 BZ7      -0.497900
     21 NAZ         -3.5190     0.3440     0.9880 ns         1 BZ7      -0.503900
     22 OAK          3.8000     1.5160    -2.1820 o          1 BZ7      -0.596100
     23 CB           2.1800    -1.9400    -0.4610 c3         1 BZ7      -0.179400
     24 CBA         -4.6800    -0.0800     0.3760 c          1 BZ7       0.613700
     25 CBC         -5.9670     0.5850     0.8230 ca         1 BZ7      -0.152600
     26 CBD         -5.9910     1.5950     1.8150 ca         1 BZ7      -0.088000
     27 CBE         -7.2070     2.1820     2.2010 ca         1 BZ7      -0.118000
     28 CBF         -8.4110     1.7730     1.6100 ca         1 BZ7      -0.081000
     29 CBG         -8.4290     0.7670     0.6150 cp         1 BZ7      -0.038000
     30 CBH         -7.1910     0.1860     0.2370 ca         1 BZ7      -0.050000
     31 CBI         -9.7140     0.3310    -0.0190 cp         1 BZ7      -0.040000
     32 CBJ        -10.9160     0.2680     0.7310 ca         1 BZ7      -0.097500
     33 CBK        -12.1230    -0.1430     0.1370 ca         1 BZ7      -0.111000
     34 CBL        -12.1530    -0.4980    -1.2210 ca         1 BZ7      -0.105000
     35 CBM        -10.9760    -0.4430    -1.9840 ca         1 BZ7      -0.111000
     36 CBN         -9.7700    -0.0330    -1.3890 ca         1 BZ7      -0.097500
     37 OBB         -4.6600    -0.9510    -0.4830 o          1 BZ7      -0.604100
     38 CG           3.4750    -2.6380    -0.8790 c          1 BZ7       0.604100
     39 ND2          4.2680    -3.0520     0.1750 ns         1 BZ7      -0.508900
     40 OD1          3.7480    -2.8370    -2.0530 o          1 BZ7      -0.598100
     41 H1           3.6550     0.0830     0.6210 hn         1 BZ7       0.316500
     42 H2           2.1650    -0.3770    -1.9480 h1         1 BZ7       0.100700
     43 H4           7.9070     0.0410     1.1680 ha         1 BZ7       0.112000
     44 H5           8.0290     3.6560    -1.2040 ha         1 BZ7       0.112000
     45 H6           9.9830     4.4490     0.1140 ha         1 BZ7       0.111500
     46 H7          10.9030     3.0440     1.9570 ha         1 BZ7       0.112000
     47 H8           6.7030     1.6630    -1.9510 hc         1 BZ7       0.063700
     48 H9           6.6440     0.2090    -0.9780 hc         1 BZ7       0.063700
     49 H10          5.2710     1.4690     0.7530 hc         1 BZ7       0.061200
     50 H11          5.2480     2.8620    -0.3690 hc         1 BZ7       0.061200
     51 H12          5.1250    -4.9930    -1.6860 hc         1 BZ7       0.045478
     52 H13          6.2910    -5.7220    -0.5770 hc         1 BZ7       0.045478
     53 H14          4.5650    -5.7210    -0.1660 hc         1 BZ7       0.045478
     54 H15          5.2520    -4.6550     2.0920 hc         1 BZ7       0.045478
     55 H16          6.9500    -4.5820     1.5820 hc         1 BZ7       0.045478
     56 H17          6.1210    -3.1060     2.1110 hc         1 BZ7       0.045478
     57 H18          6.7500    -1.9610    -0.0770 hc         1 BZ7       0.045478
     58 H19          7.5850    -3.4290    -0.6130 hc         1 BZ7       0.045478
     59 H20          6.3440    -2.6960    -1.6410 hc         1 BZ7       0.045478
     60 H21         -2.3250     0.0330    -1.4810 h1         1 BZ7       0.066200
     61 H22         -1.6210     1.4480    -0.6740 h1         1 BZ7       0.066200
     62 H23         -2.1970    -1.2570     0.6720 h1         1 BZ7       0.059700
     63 H24         -1.4930     0.1570     1.4790 h1         1 BZ7       0.059700
     64 H25         -0.2050    -0.8790    -1.6900 hn         1 BZ7       0.323500
     65 H26         -3.6130     1.0620     1.6940 hn         1 BZ7       0.321500
     66 H27          2.0420    -2.0240     0.6240 hc         1 BZ7       0.070200
     67 H28          1.3480    -2.4440    -0.9650 hc         1 BZ7       0.070200
     68 H29         -5.0800     1.9400     2.2960 ha         1 BZ7       0.112000
     69 H30         -7.2150     2.9600     2.9620 ha         1 BZ7       0.118000
     70 H31         -9.3380     2.2520     1.9170 ha         1 BZ7       0.118000
     71 H32         -7.1890    -0.5990    -0.5150 ha         1 BZ7       0.137000
     72 H33        -10.9120     0.5260     1.7870 ha         1 BZ7       0.116000
     73 H34        -13.0330    -0.1870     0.7310 ha         1 BZ7       0.114000
     74 H35        -13.0870    -0.8150    -1.6810 ha         1 BZ7       0.113000
     75 H36        -10.9980    -0.7140    -3.0370 ha         1 BZ7       0.114000
     76 H37         -8.8730     0.0160    -2.0030 ha         1 BZ7       0.116000
     77 H38          3.9110    -2.8410     1.0990 hn         1 BZ7       0.307500
     78 H3           9.8600     0.8400     2.4800 ha         1 BZ7       0.111500
@<TRIPOS>BOND
     1     1     2 1   
     2     1    11 1   
     3     1    41 1   
     4     2    18 1   
     5     2    23 1   
     6     2    42 1   
     7     3     4 ar  
     8     3     8 ar  
     9     3    78 1   
    10     4     5 ar  
    11     4    43 1   
    12     5     6 ar  
    13     5     9 1   
    14     6     7 ar  
    15     6    44 1   
    16     7     8 ar  
    17     7    45 1   
    18     8    46 1   
    19     9    10 1   
    20     9    47 1   
    21     9    48 1   
    22    10    11 1   
    23    10    49 1   
    24    10    50 1   
    25    11    22 2   
    26    12    13 1   
    27    12    14 1   
    28    12    15 1   
    29    12    39 1   
    30    13    51 1   
    31    13    52 1   
    32    13    53 1   
    33    14    54 1   
    34    14    55 1   
    35    14    56 1   
    36    15    57 1   
    37    15    58 1   
    38    15    59 1   
    39    16    17 1   
    40    16    20 1   
    41    16    60 1   
    42    16    61 1   
    43    17    21 1   
    44    17    62 1   
    45    17    63 1   
    46    18    19 2   
    47    18    20 1   
    48    20    64 1   
    49    21    24 1   
    50    21    65 1   
    51    23    38 1   
    52    23    66 1   
    53    23    67 1   
    54    24    25 1   
    55    24    37 2   
    56    25    26 ar  
    57    25    30 ar  
    58    26    27 ar  
    59    26    68 1   
    60    27    28 ar  
    61    27    69 1   
    62    28    29 ar  
    63    28    70 1   
    64    29    30 ar  
    65    29    31 1   
    66    30    71 1   
    67    31    32 ar  
    68    31    36 ar  
    69    32    33 ar  
    70    32    72 1   
    71    33    34 ar  
    72    33    73 1   
    73    34    35 ar  
    74    34    74 1   
    75    35    36 ar  
    76    35    75 1   
    77    36    76 1   
    78    38    39 1   
    79    38    40 2   
    80    39    77 1   
@<TRIPOS>SUBSTRUCTURE
     1 BZ7         1 TEMP              0 ****  ****    0 ROOT
