@<TRIPOS>MOLECULE
BZ7
   78    80     1     0     0
SMALL
bcc


@<TRIPOS>ATOM
      1 N            3.5450    -0.2980    -0.1510 ns         1 BZ7      -0.560900
      2 CA           2.2990    -0.8530    -0.6010 c3         1 BZ7       0.045700
      3 CAA          9.6800     2.3870     0.4170 ca         1 BZ7      -0.128000
      4 CAB          8.5350     1.9820    -0.2580 ca         1 BZ7      -0.125500
      5 CAC          7.3590     2.7240    -0.1790 ca         1 BZ7      -0.084300
      6 CAD          7.3550     3.8840     0.5940 ca         1 BZ7      -0.125500
      7 CAE          8.4960     4.2920     1.2710 ca         1 BZ7      -0.128000
      8 CAF          9.6630     3.5430     1.1860 ca         1 BZ7      -0.129000
      9 CAG          6.1090     2.2610    -0.8750 c3         1 BZ7      -0.020100
     10 CAH          5.2610     1.3890     0.0470 c3         1 BZ7      -0.153400
     11 CAI          3.9990     0.8830    -0.6140 c          1 BZ7       0.673100
     12 CAS          5.2670    -4.4880     0.2020 c3         1 BZ7       0.138400
     13 CAT          4.9390    -5.7770    -0.5520 c3         1 BZ7      -0.104100
     14 CAU          5.7630    -4.8390     1.6040 c3         1 BZ7      -0.104100
     15 CAV          6.3450    -3.6890    -0.5310 c3         1 BZ7      -0.104100
     16 CAX         -1.2360     0.5240    -0.5980 c3         1 BZ7       0.080000
     17 CAY         -2.0670    -0.2980     0.3870 c3         1 BZ7       0.079000
     18 C            1.1160     0.0030    -0.1380 c          1 BZ7       0.653100
     19 O            1.1740     0.6950     0.8640 o          1 BZ7      -0.602100
     20 NAN          0.0240    -0.1080    -0.9070 ns         1 BZ7      -0.564900
     21 NAZ         -3.3400     0.3240     0.6670 ns         1 BZ7      -0.570900
     22 OAK          3.4220     1.4900    -1.5030 o          1 BZ7      -0.596100
     23 CB           2.1480    -2.2750    -0.0600 c3         1 BZ7      -0.179400
     24 CBA         -4.4250     0.1460    -0.1050 c          1 BZ7       0.680700
     25 CBC         -5.6460     0.9160     0.2890 ca         1 BZ7      -0.152600
     26 CBD         -5.5810     2.1480     0.9340 ca         1 BZ7      -0.106000
     27 CBE         -6.7510     2.8190     1.2560 ca         1 BZ7      -0.136000
     28 CBF         -7.9830     2.2680     0.9440 ca         1 BZ7      -0.099000
     29 CBG         -8.0690     1.0350     0.2930 cp         1 BZ7      -0.038000
     30 CBH         -6.8870     0.3770    -0.0380 ca         1 BZ7      -0.068000
     31 CBI         -9.3810     0.4430    -0.0410 cp         1 BZ7      -0.040000
     32 CBJ        -10.4690     0.5880     0.8210 ca         1 BZ7      -0.115500
     33 CBK        -11.7000     0.0290     0.5100 ca         1 BZ7      -0.129000
     34 CBL        -11.8660    -0.6860    -0.6690 ca         1 BZ7      -0.123000
     35 CBM        -10.7910    -0.8360    -1.5340 ca         1 BZ7      -0.129000
     36 CBN         -9.5600    -0.2770    -1.2240 ca         1 BZ7      -0.115500
     37 OBB         -4.4370    -0.6110    -1.0660 o          1 BZ7      -0.604100
     38 CG           3.2900    -3.1420    -0.5670 c          1 BZ7       0.671100
     39 ND2          4.0630    -3.6680     0.3920 ns         1 BZ7      -0.575900
     40 OD1          3.4640    -3.2970    -1.7680 o          1 BZ7      -0.598100
     41 H1           4.0000    -0.7110     0.6480 hn         1 BZ7       0.316500
     42 H2           2.3000    -0.8980    -1.6930 h1         1 BZ7       0.100700
     43 H4           8.5580     1.0800    -0.8580 ha         1 BZ7       0.130000
     44 H5           6.4490     4.4750     0.6630 ha         1 BZ7       0.130000
     45 H6           8.4750     5.1970     1.8640 ha         1 BZ7       0.129500
     46 H7          10.5540     3.8600     1.7130 ha         1 BZ7       0.130000
     47 H8           5.5250     3.1210    -1.2060 hc         1 BZ7       0.063700
     48 H9           6.3740     1.6940    -1.7700 hc         1 BZ7       0.063700
     49 H10          5.8520     0.5490     0.4210 hc         1 BZ7       0.061200
     50 H11          4.9640     1.9630     0.9310 hc         1 BZ7       0.061200
     51 H12          4.6300    -5.5830    -1.5770 hc         1 BZ7       0.045478
     52 H13          5.8200    -6.4190    -0.5820 hc         1 BZ7       0.045478
     53 H14          4.1410    -6.3270    -0.0500 hc         1 BZ7       0.045478
     54 H15          5.0150    -5.4090     2.1590 hc         1 BZ7       0.045478
     55 H16          6.6660    -5.4450     1.5410 hc         1 BZ7       0.045478
     56 H17          6.0050    -3.9410     2.1760 hc         1 BZ7       0.045478
     57 H18          6.5910    -2.7770     0.0160 hc         1 BZ7       0.045478
     58 H19          7.2560    -4.2840    -0.6160 hc         1 BZ7       0.045478
     59 H20          6.0290    -3.4110    -1.5350 hc         1 BZ7       0.045478
     60 H21         -1.7840     0.6480    -1.5310 h1         1 BZ7       0.066200
     61 H22         -1.0540     1.5200    -0.1920 h1         1 BZ7       0.066200
     62 H23         -2.2290    -1.3010    -0.0090 h1         1 BZ7       0.059700
     63 H24         -1.5300    -0.4020     1.3290 h1         1 BZ7       0.059700
     64 H25          0.0550    -0.7150    -1.7120 hn         1 BZ7       0.323500
     65 H26         -3.4000     0.9110     1.4830 hn         1 BZ7       0.321500
     66 H27          2.0920    -2.2580     1.0320 hc         1 BZ7       0.070200
     67 H28          1.2100    -2.7020    -0.4200 hc         1 BZ7       0.070200
     68 H29         -4.6280     2.6090     1.1630 ha         1 BZ7       0.130000
     69 H30         -6.7010     3.7850     1.7420 ha         1 BZ7       0.136000
     70 H31         -8.8860     2.8140     1.1870 ha         1 BZ7       0.136000
     71 H32         -6.9270    -0.5840    -0.5350 ha         1 BZ7       0.155000
     72 H33        -10.3540     1.1260     1.7540 ha         1 BZ7       0.134000
     73 H34        -12.5300     0.1480     1.1940 ha         1 BZ7       0.132000
     74 H35        -12.8260    -1.1240    -0.9110 ha         1 BZ7       0.131000
     75 H36        -10.9110    -1.3860    -2.4590 ha         1 BZ7       0.132000
     76 H37         -8.7380    -0.3870    -1.9190 ha         1 BZ7       0.134000
     77 H38          3.7990    -3.4790     1.3460 hn         1 BZ7       0.307500
     78 H3          10.5860     1.8000     0.3390 ha         1 BZ7       0.129500
@<TRIPOS>BOND
     1     1     2 1   
     2     1    11 1   
     3     1    41 1   
     4     2    18 1   
     5     2    23 1   
     6     2    42 1   
     7     3     4 ar  
     8     3     8 ar  
     9     3    78 1   
    10     4     5 ar  
    11     4    43 1   
    12     5     6 ar  
    13     5     9 1   
    14     6     7 ar  
    15     6    44 1   
    16     7     8 ar  
    17     7    45 1   
    18     8    46 1   
    19     9    10 1   
    20     9    47 1   
    21     9    48 1   
    22    10    11 1   
    23    10    49 1   
    24    10    50 1   
    25    11    22 2   
    26    12    13 1   
    27    12    14 1   
    28    12    15 1   
    29    12    39 1   
    30    13    51 1   
    31    13    52 1   
    32    13    53 1   
    33    14    54 1   
    34    14    55 1   
    35    14    56 1   
    36    15    57 1   
    37    15    58 1   
    38    15    59 1   
    39    16    17 1   
    40    16    20 1   
    41    16    60 1   
    42    16    61 1   
    43    17    21 1   
    44    17    62 1   
    45    17    63 1   
    46    18    19 2   
    47    18    20 1   
    48    20    64 1   
    49    21    24 1   
    50    21    65 1   
    51    23    38 1   
    52    23    66 1   
    53    23    67 1   
    54    24    25 1   
    55    24    37 2   
    56    25    26 ar  
    57    25    30 ar  
    58    26    27 ar  
    59    26    68 1   
    60    27    28 ar  
    61    27    69 1   
    62    28    29 ar  
    63    28    70 1   
    64    29    30 ar  
    65    29    31 1   
    66    30    71 1   
    67    31    32 ar  
    68    31    36 ar  
    69    32    33 ar  
    70    32    72 1   
    71    33    34 ar  
    72    33    73 1   
    73    34    35 ar  
    74    34    74 1   
    75    35    36 ar  
    76    35    75 1   
    77    36    76 1   
    78    38    39 1   
    79    38    40 2   
    80    39    77 1   
@<TRIPOS>SUBSTRUCTURE
     1 BZ7         1 TEMP              0 ****  ****    0 ROOT
