@<TRIPOS>MOLECULE
BZ8
   36    38     1     0     0
SMALL
bcc


@<TRIPOS>ATOM
      1 N1          -1.4500     3.9820     0.2610 nc         1 BZ8      -0.139100
      2 N2          -2.0640     2.8720     0.2820 nd         1 BZ8      -0.356000
      3 C3          -1.2830     1.7560     0.2630 cd         1 BZ8       0.375800
      4 C4           0.0640     2.0580     0.2520 cc         1 BZ8      -0.099400
      5 C6          -1.9380     0.4450     0.2430 ca         1 BZ8      -0.260500
      6 C7           1.2380     1.1890     0.3180 ca         1 BZ8      -0.080000
      7 C16          1.3570     0.2450     1.3430 ca         1 BZ8      -0.064500
      8 C15          2.4590    -0.5770     1.4190 ca         1 BZ8      -0.196000
      9 C14          3.4830    -0.4780     0.4700 ca         1 BZ8       0.168100
     10 C13          3.3790     0.4660    -0.5500 ca         1 BZ8      -0.196000
     11 C12          2.2640     1.2900    -0.6150 ca         1 BZ8      -0.064500
     12 C21         -3.2370     0.2660     0.7600 ca         1 BZ8       0.232100
     13 C22         -3.8100    -1.0000     0.7790 ca         1 BZ8      -0.225000
     14 C23         -3.1420    -2.1030     0.2670 ca         1 BZ8       0.208100
     15 C24         -1.8740    -1.9120    -0.2910 ca         1 BZ8      -0.124600
     16 C25         -1.2940    -0.6630    -0.3030 ca         1 BZ8      -0.017000
     17 O29         -3.7520    -3.2900     0.3180 oh         1 BZ8      -0.481100
     18 O30         -3.9710     1.2670     1.2590 oh         1 BZ8      -0.498100
     19 O33          4.5130    -1.3210     0.6210 os         1 BZ8      -0.320900
     20 S1           0.1960     3.7500     0.2280 ss         1 BZ8       0.174200
     21 C34          5.5740    -1.2980    -0.3290 c3         1 BZ8       0.141400
     22 CL          -1.0420    -3.2680    -0.9820 cl         1 BZ8      -0.113400
     23 CAA          6.5800    -2.3510     0.0700 c3         1 BZ8      -0.095100
     24 H25         -0.3190    -0.5480    -0.7570 ha         1 BZ8       0.154000
     25 H12          2.1940     2.0080    -1.4230 ha         1 BZ8       0.140500
     26 H16          0.5790     0.1580     2.0910 ha         1 BZ8       0.140500
     27 H13          4.1450     0.5760    -1.3050 ha         1 BZ8       0.146000
     28 H15          2.5420    -1.3040     2.2170 ha         1 BZ8       0.146000
     29 H22         -4.8040    -1.1290     1.1900 ha         1 BZ8       0.168000
     30 H30         -3.5780     2.1240     1.0050 ho         1 BZ8       0.471000
     31 H29         -3.2130    -3.9790    -0.0930 ho         1 BZ8       0.443000
     32 H341         5.1840    -1.5000    -1.3320 h1         1 BZ8       0.036200
     33 H342         6.0420    -0.3090    -0.3470 h1         1 BZ8       0.036200
     34 HAA1         7.3970    -2.3600    -0.6510 hc         1 BZ8       0.049367
     35 HAA2         7.0030    -2.1470     1.0530 hc         1 BZ8       0.049367
     36 HAA3         6.1330    -3.3450     0.0810 hc         1 BZ8       0.049367
@<TRIPOS>BOND
     1     1     2 2   
     2     1    20 1   
     3     2     3 1   
     4     3     4 2   
     5     3     5 1   
     6     4     6 1   
     7     4    20 1   
     8     5    12 ar  
     9     5    16 ar  
    10     6     7 ar  
    11     6    11 ar  
    12     7     8 ar  
    13     7    26 1   
    14     8     9 ar  
    15     8    28 1   
    16     9    10 ar  
    17     9    19 1   
    18    10    11 ar  
    19    10    27 1   
    20    11    25 1   
    21    12    13 ar  
    22    12    18 1   
    23    13    14 ar  
    24    13    29 1   
    25    14    15 ar  
    26    14    17 1   
    27    15    16 ar  
    28    15    22 1   
    29    16    24 1   
    30    17    31 1   
    31    18    30 1   
    32    19    21 1   
    33    21    23 1   
    34    21    32 1   
    35    21    33 1   
    36    23    34 1   
    37    23    35 1   
    38    23    36 1   
@<TRIPOS>SUBSTRUCTURE
     1 BZ8         1 TEMP              0 ****  ****    0 ROOT
