@<TRIPOS>MOLECULE
BZ8
   36    38     1     0     0
SMALL
No Charge or Current Charge


@<TRIPOS>ATOM
      1 N1          -1.4820     4.0880     0.2840 nc         1 BZ8      -0.139100
      2 N2          -2.1230     2.9470     0.3650 nd         1 BZ8      -0.356000
      3 C3          -1.2930     1.8320     0.3320 cd         1 BZ8       0.310500
      4 C4           0.0290     2.2070     0.1900 cc         1 BZ8      -0.179000
      5 C6          -1.8840     0.4620     0.3200 ca         1 BZ8      -0.260500
      6 C7           1.1680     1.2950     0.2850 ca         1 BZ8      -0.080000
      7 C16          1.2840     0.4030     1.3690 ca         1 BZ8      -0.046500
      8 C15          2.3850    -0.4660     1.4540 ca         1 BZ8      -0.178000
      9 C14          3.3830    -0.4480     0.4690 ca         1 BZ8       0.168100
     10 C13          3.2780     0.4550    -0.6100 ca         1 BZ8      -0.178000
     11 C12          2.1760     1.3250    -0.6960 ca         1 BZ8      -0.046500
     12 C21         -3.1830     0.1970     0.8270 ca         1 BZ8       0.232100
     13 C22         -3.7240    -1.0950     0.7890 ca         1 BZ8      -0.207000
     14 C23         -3.0060    -2.1480     0.2190 ca         1 BZ8       0.208100
     15 C24         -1.7380    -1.9050    -0.3330 ca         1 BZ8      -0.033000
     16 C25         -1.1910    -0.6130    -0.2930 ca         1 BZ8       0.001000
     17 O29         -3.5530    -3.3970     0.1880 oh         1 BZ8      -0.520100
     18 O30         -3.9330     1.1750     1.4010 oh         1 BZ8      -0.537100
     19 O33          4.4390    -1.3260     0.6050 os         1 BZ8      -0.344100
     20 S1           0.1750     3.9320     0.1260 ss         1 BZ8       0.319100
     21 C34          5.5090    -1.3900    -0.3520 c3         1 BZ8       0.164600
     22 Cl          -0.8240    -3.2080    -1.0950 cl         1 BZ8      -0.205000
     23 CAA          6.4910    -2.4740     0.1220 c3         1 BZ8      -0.095100
     24 H25         -0.2320    -0.4610    -0.7770 ha         1 BZ8       0.136000
     25 H12          2.1010     2.0170    -1.5320 ha         1 BZ8       0.122500
     26 H16          0.5200     0.3810     2.1440 ha         1 BZ8       0.122500
     27 H13          4.0350     0.4980    -1.3880 ha         1 BZ8       0.128000
     28 H15          2.4650    -1.1570     2.2890 ha         1 BZ8       0.128000
     29 H22         -4.7110    -1.2780     1.2030 ha         1 BZ8       0.150000
     30 H30         -3.4720     2.0250     1.2110 ho         1 BZ8       0.510000
     31 H29         -2.9080    -3.9890    -0.2550 ho         1 BZ8       0.482000
     32 H341         5.1280    -1.6530    -1.3470 h1         1 BZ8       0.036200
     33 H342         6.0330    -0.4270    -0.4170 h1         1 BZ8       0.036200
     34 HAA1         7.3280    -2.5600    -0.5800 hc         1 BZ8       0.049367
     35 HAA2         6.8940    -2.2240     1.1100 hc         1 BZ8       0.049367
     36 HAA3         5.9910    -3.4480     0.1820 hc         1 BZ8       0.049367
@<TRIPOS>BOND
     1     1     2 2   
     2     1    20 1   
     3     2     3 1   
     4     3     4 2   
     5     3     5 1   
     6     4     6 1   
     7     4    20 1   
     8     5    12 ar  
     9     5    16 ar  
    10     6     7 ar  
    11     6    11 ar  
    12     7     8 ar  
    13     7    26 1   
    14     8     9 ar  
    15     8    28 1   
    16     9    10 ar  
    17     9    19 1   
    18    10    11 ar  
    19    10    27 1   
    20    11    25 1   
    21    12    13 ar  
    22    12    18 1   
    23    13    14 ar  
    24    13    29 1   
    25    14    15 ar  
    26    14    17 1   
    27    15    16 ar  
    28    15    22 1   
    29    16    24 1   
    30    17    31 1   
    31    18    30 1   
    32    19    21 1   
    33    21    23 1   
    34    21    32 1   
    35    21    33 1   
    36    23    34 1   
    37    23    35 1   
    38    23    36 1   
@<TRIPOS>SUBSTRUCTURE
     1 BZ8         1 TEMP              0 ****  ****    0 ROOT
