@<TRIPOS>MOLECULE
BZ9
   59    64     1     0     0
SMALL
No Charge or Current Charge


@<TRIPOS>ATOM
      1 N1          -5.8540    -0.7590    -0.0340 na         1 BZ9      -0.356600
      2 C4          -5.8350     1.3040     0.6920 ca         1 BZ9       0.099400
      3 C5          -6.3650     2.5070     1.1830 ca         1 BZ9      -0.064000
      4 C6          -7.7620     2.5910     1.3830 ca         1 BZ9      -0.126000
      5 C7          -8.5970     1.4840     1.0930 ca         1 BZ9      -0.105000
      6 C8          -8.0420     0.2840     0.6000 ca         1 BZ9      -0.112000
      7 C10          0.2190    -1.3350    -0.0290 ca         1 BZ9      -0.010000
      8 C13         -0.5860    -3.8170     1.0440 ca         1 BZ9      -0.107000
      9 C15          1.1780    -2.2640     0.4360 ca         1 BZ9      -0.088000
     10 C17          0.6280    -0.0910    -0.5640 ca         1 BZ9       0.083100
     11 C20         -2.1220    -0.7120    -0.4140 ca         1 BZ9       0.327000
     12 C21          4.1430     0.1770    -1.6360 cp         1 BZ9      -0.226500
     13 C22          4.9310    -0.1050    -2.7770 ca         1 BZ9      -0.030000
     14 C24          2.9410    -0.9050    -3.8890 ca         1 BZ9       0.387900
     15 C26          2.7510    -0.1050    -1.7230 ca         1 BZ9       0.614300
     16 C28          4.7800     0.7510    -0.4140 cp         1 BZ9       0.240500
     17 C35          5.1330     0.5830     4.4310 c3         1 BZ9       0.235100
     18 C32          5.0420     0.7590     1.8720 ca         1 BZ9       0.388900
     19 N27          4.4300     0.2540     0.7890 nb         1 BZ9      -0.244000
     20 N31          5.9890     1.7160     1.8890 nb         1 BZ9      -0.245000
     21 C30          6.3580     2.2120     0.6940 ca         1 BZ9       0.151900
     22 C29          5.7770     1.7500    -0.4970 ca         1 BZ9      -0.284000
     23 C23          4.3190    -0.6530    -3.9100 ca         1 BZ9      -0.208000
     24 N25          2.1650    -0.6330    -2.8220 nb         1 BZ9      -0.739000
     25 C18         -0.3280     0.8440    -1.0100 ca         1 BZ9      -0.024300
     26 C36          0.1030     2.1920    -1.5780 c3         1 BZ9      -0.048800
     27 C19         -1.6930     0.5190    -0.9380 ca         1 BZ9      -0.135000
     28 C14          0.7760    -3.4990     0.9670 ca         1 BZ9      -0.113000
     29 C12         -1.5500    -2.9040     0.5890 ca         1 BZ9      -0.110000
     30 C11         -1.1620    -1.6530     0.0450 ca         1 BZ9      -0.060000
     31 C9          -4.5680    -0.2620    -0.0210 cc         1 BZ9       0.662700
     32 N2          -4.5030     0.9970     0.4220 nd         1 BZ9      -0.630100
     33 C3          -6.6550     0.2450     0.4180 ca         1 BZ9      -0.080200
     34 H5          -5.7160     3.3500     1.4030 ha         1 BZ9       0.128000
     35 H6          -8.1980     3.5120     1.7620 ha         1 BZ9       0.113000
     36 H7          -9.6710     1.5590     1.2500 ha         1 BZ9       0.112000
     37 H8          -8.6690    -0.5760     0.3730 ha         1 BZ9       0.114000
     38 H13         -0.8970    -4.7730     1.4600 ha         1 BZ9       0.111000
     39 H15          2.2400    -2.0360     0.3910 ha         1 BZ9       0.143000
     40 H22          6.0030     0.0850    -2.7750 ha         1 BZ9       0.125000
     41 H24          2.4420    -1.3320    -4.7580 h4         1 BZ9       0.022100
     42 H35          4.6260    -0.0170     5.2000 h1         1 BZ9       0.040367
     43 H35A         6.2140     0.4020     4.5090 h1         1 BZ9       0.040367
     44 H30          7.1250     2.9850     0.6920 h4         1 BZ9       0.019100
     45 H29          6.0830     2.1610    -1.4550 ha         1 BZ9       0.134000
     46 H23          4.9000    -0.8870    -4.7980 ha         1 BZ9       0.129000
     47 H36          0.6110     2.0670    -2.5410 hc         1 BZ9       0.050367
     48 H36A        -0.7520     2.8600    -1.7390 hc         1 BZ9       0.050367
     49 H36B         0.7940     2.7050    -0.8980 hc         1 BZ9       0.050367
     50 H19         -2.4310     1.2270    -1.3020 ha         1 BZ9       0.155000
     51 H14          1.5220    -4.2070     1.3220 ha         1 BZ9       0.112000
     52 H12         -2.5960    -3.1820     0.6770 ha         1 BZ9       0.097000
     53 HN16        -3.7140    -1.9860    -0.4370 hn         1 BZ9       0.496000
     54 HN1         -6.1340    -1.6790    -0.3370 hn         1 BZ9       0.353000
     55 H221         4.9410     1.6440     4.6390 h1         1 BZ9       0.040367
     56 H231         3.9150    -0.4940     3.0280 hn         1 BZ9       0.508000
     57 N16         -3.4920    -0.9990    -0.3900 nu         1 BZ9      -0.910200
     58 O33          1.9670     0.2280    -0.6390 os         1 BZ9      -0.349400
     59 N34          4.6430     0.2210     3.0870 nu         1 BZ9      -0.927100
@<TRIPOS>BOND
     1     1    31 1   
     2     1    33 1   
     3     1    54 1   
     4     2     3 ar  
     5     2    32 1   
     6     2    33 ar  
     7     3     4 ar  
     8     3    34 1   
     9     4     5 ar  
    10     4    35 1   
    11     5     6 ar  
    12     5    36 1   
    13     6    33 ar  
    14     6    37 1   
    15     7     9 ar  
    16     7    10 ar  
    17     7    30 ar  
    18     8    28 ar  
    19     8    29 ar  
    20     8    38 1   
    21     9    28 ar  
    22     9    39 1   
    23    10    25 ar  
    24    10    58 1   
    25    11    27 ar  
    26    11    30 ar  
    27    11    57 1   
    28    12    13 ar  
    29    12    15 ar  
    30    12    16 1   
    31    13    23 ar  
    32    13    40 1   
    33    14    23 ar  
    34    14    24 ar  
    35    14    41 1   
    36    15    24 ar  
    37    15    58 1   
    38    16    19 ar  
    39    16    22 ar  
    40    17    42 1   
    41    17    43 1   
    42    17    55 1   
    43    17    59 1   
    44    18    19 ar  
    45    18    20 ar  
    46    18    59 1   
    47    20    21 ar  
    48    21    22 ar  
    49    21    44 1   
    50    22    45 1   
    51    23    46 1   
    52    25    26 1   
    53    25    27 ar  
    54    26    47 1   
    55    26    48 1   
    56    26    49 1   
    57    27    50 1   
    58    28    51 1   
    59    29    30 ar  
    60    29    52 1   
    61    31    32 2   
    62    31    57 1   
    63    53    57 1   
    64    56    59 1   
@<TRIPOS>SUBSTRUCTURE
     1 BZ9         1 TEMP              0 ****  ****    0 ROOT
