@<TRIPOS>MOLECULE
BZ9
   59    64     1     0     0
SMALL
bcc


@<TRIPOS>ATOM
      1 N1          -5.7320    -0.8640     0.2840 na         1 BZ9      -0.306300
      2 C4          -5.9540     1.3230     0.1980 ca         1 BZ9       0.099400
      3 C5          -6.6260     2.5400     0.1660 ca         1 BZ9      -0.082000
      4 C6          -8.0140     2.5220     0.2120 ca         1 BZ9      -0.144000
      5 C7          -8.7240     1.3210     0.2870 ca         1 BZ9      -0.123000
      6 C8          -8.0700     0.0950     0.3200 ca         1 BZ9      -0.130000
      7 C10          0.3190    -1.0930     0.2790 ca         1 BZ9      -0.010000
      8 C13         -0.2620    -3.5550     1.4770 ca         1 BZ9      -0.125000
      9 C15          1.3590    -1.9660     0.6840 ca         1 BZ9      -0.106000
     10 C17          0.5940     0.1620    -0.3090 ca         1 BZ9       0.083100
     11 C20         -2.0700    -0.5790     0.0820 ca         1 BZ9       0.188600
     12 C21          3.9420     0.3550    -1.6320 cp         1 BZ9      -0.291800
     13 C22          4.5680     0.1270    -2.8470 ca         1 BZ9      -0.048000
     14 C24          2.4610    -0.4080    -3.7940 ca         1 BZ9       0.453200
     15 C26          2.5460     0.2120    -1.6110 ca         1 BZ9       0.679600
     16 C28          4.7270     0.6990    -0.4290 cp         1 BZ9       0.568800
     17 C35          5.6980    -0.2470     4.0970 c3         1 BZ9       0.235100
     18 C32          5.2420     0.2830     1.7440 ca         1 BZ9       0.914900
     19 N27          4.5090    -0.0140     0.6620 nb         1 BZ9      -0.770000
     20 N31          6.1860     1.2310     1.8080 nb         1 BZ9      -0.771000
     21 C30          6.3890     1.9250     0.7000 ca         1 BZ9       0.480200
     22 C29          5.6830     1.7120    -0.4710 ca         1 BZ9      -0.432600
     23 C23          3.8250    -0.2620    -3.9540 ca         1 BZ9      -0.291300
     24 N25          1.8350    -0.1640    -2.6450 nb         1 BZ9      -0.739000
     25 C18         -0.4000     1.0320    -0.6610 ca         1 BZ9      -0.024300
     26 C36         -0.0950     2.3600    -1.2860 c3         1 BZ9      -0.048800
     27 C19         -1.7390     0.6420    -0.4560 ca         1 BZ9      -0.153000
     28 C14          1.0740    -3.1720     1.2620 ca         1 BZ9      -0.131000
     29 C12         -1.2850    -2.7250     1.1060 ca         1 BZ9      -0.128000
     30 C11         -1.0320    -1.4760     0.4890 ca         1 BZ9      -0.060000
     31 C9          -4.5180    -0.2470     0.2220 cc         1 BZ9       0.662700
     32 N2          -4.6040     1.0560     0.1680 nd         1 BZ9      -0.630100
     33 C3          -6.6860     0.1260     0.2730 ca         1 BZ9      -0.080200
     34 H5          -6.0800     3.4730     0.1050 ha         1 BZ9       0.146000
     35 H6          -8.5590     3.4570     0.1890 ha         1 BZ9       0.131000
     36 H7          -9.8050     1.3440     0.3210 ha         1 BZ9       0.130000
     37 H8          -8.6210    -0.8350     0.3800 ha         1 BZ9       0.132000
     38 H13         -0.4850    -4.5020     1.9500 ha         1 BZ9       0.129000
     39 H15          2.3910    -1.6640     0.5560 ha         1 BZ9       0.161000
     40 H22          5.6440     0.2270    -2.9210 ha         1 BZ9       0.143000
     41 H24          1.8380    -0.7280    -4.6210 h4         1 BZ9       0.022100
     42 H35          5.2890    -0.9450     4.8220 h1         1 BZ9       0.040367
     43 H35A         6.7680    -0.4380     4.0040 h1         1 BZ9       0.040367
     44 H30          7.1510     2.6950     0.7470 h4         1 BZ9       0.019100
     45 H29          5.8590     2.3050    -1.3560 ha         1 BZ9       0.152000
     46 H23          4.2950    -0.4600    -4.9070 ha         1 BZ9       0.147000
     47 H36          0.2420     2.2370    -2.3170 hc         1 BZ9       0.050367
     48 H36A        -0.9790     2.9950    -1.3000 hc         1 BZ9       0.050367
     49 H36B         0.6910     2.8910    -0.7500 hc         1 BZ9       0.050367
     50 H19         -2.5230     1.3270    -0.7410 ha         1 BZ9       0.173000
     51 H14          1.8780    -3.8290     1.5670 ha         1 BZ9       0.130000
     52 H12         -2.2970    -3.0480     1.3160 ha         1 BZ9       0.115000
     53 HN16        -3.5370    -1.9920     0.3130 hn         1 BZ9       0.440800
     54 HN1         -5.8990    -1.8570     0.3280 hn         1 BZ9       0.302700
     55 H221         5.5690     0.7640     4.4860 h1         1 BZ9       0.040367
     56 H231         4.2880    -1.1400     2.7900 hn         1 BZ9       0.452800
     57 N16         -3.3870    -1.0000     0.2400 nu         1 BZ9      -0.716600
     58 O33          1.9150     0.5210    -0.4620 os         1 BZ9      -0.349400
     59 N34          5.0040    -0.4370     2.8500 nu         1 BZ9      -0.871900
@<TRIPOS>BOND
     1     1    31 1   
     2     1    33 1   
     3     1    54 1   
     4     2     3 ar  
     5     2    32 1   
     6     2    33 ar  
     7     3     4 ar  
     8     3    34 1   
     9     4     5 ar  
    10     4    35 1   
    11     5     6 ar  
    12     5    36 1   
    13     6    33 ar  
    14     6    37 1   
    15     7     9 ar  
    16     7    10 ar  
    17     7    30 ar  
    18     8    28 ar  
    19     8    29 ar  
    20     8    38 1   
    21     9    28 ar  
    22     9    39 1   
    23    10    25 ar  
    24    10    58 1   
    25    11    27 ar  
    26    11    30 ar  
    27    11    57 1   
    28    12    13 ar  
    29    12    15 ar  
    30    12    16 1   
    31    13    23 ar  
    32    13    40 1   
    33    14    23 ar  
    34    14    24 ar  
    35    14    41 1   
    36    15    24 ar  
    37    15    58 1   
    38    16    19 ar  
    39    16    22 ar  
    40    17    42 1   
    41    17    43 1   
    42    17    55 1   
    43    17    59 1   
    44    18    19 ar  
    45    18    20 ar  
    46    18    59 1   
    47    20    21 ar  
    48    21    22 ar  
    49    21    44 1   
    50    22    45 1   
    51    23    46 1   
    52    25    26 1   
    53    25    27 ar  
    54    26    47 1   
    55    26    48 1   
    56    26    49 1   
    57    27    50 1   
    58    28    51 1   
    59    29    30 ar  
    60    29    52 1   
    61    31    32 2   
    62    31    57 1   
    63    53    57 1   
    64    56    59 1   
@<TRIPOS>SUBSTRUCTURE
     1 BZ9         1 TEMP              0 ****  ****    0 ROOT
