@<TRIPOS>MOLECULE
BZA
   37    40     1     0     0
SMALL
abcg2


@<TRIPOS>ATOM
      1 C4C          1.4060    -0.1630    -1.5280 c6         1 BZA      -0.070100
      2 C9C          1.4330    -0.4930    -3.0160 c6         1 BZA       0.181300
      3 O3           2.7060    -0.2710    -3.5780 oh         1 BZA      -0.707000
      4 C8B          0.4150     0.3400    -3.7680 c6         1 BZA       0.183300
      5 O2           0.6870     1.6990    -3.5260 oh         1 BZA      -0.639000
      6 C3B         -0.9820    -0.0280    -3.2750 c6         1 BZA       0.184600
      7 O1          -1.2870    -1.3150    -3.7780 oh         1 BZA      -0.717000
      8 C3A         -1.0810     0.0100    -1.7680 ca         1 BZA      -0.124300
      9 C2A         -2.3890     0.1060    -1.2080 ca         1 BZA      -0.104000
     10 C4A          0.0170    -0.0770    -0.9570 ca         1 BZA      -0.012300
     11 C1A         -2.5870     0.1230     0.1330 ca         1 BZA      -0.100000
     12 C5A          0.9220    -0.0890     1.3540 ca         1 BZA      -0.085000
     13 C4B         -0.1560    -0.0430     0.4720 ca         1 BZA      -0.030000
     14 C6A          1.8500    -0.0940     3.6360 ca         1 BZA      -0.098000
     15 C7A          1.6520    -0.0520     4.9820 ca         1 BZA      -0.107000
     16 C8A          0.3380     0.0370     5.5170 ca         1 BZA      -0.105000
     17 C5B          0.7460    -0.0480     2.7370 ca         1 BZA      -0.035000
     18 C9B         -0.5750     0.0430     3.2760 ca         1 BZA      -0.030000
     19 C11         -1.4760     0.0540     1.0200 ca         1 BZA      -0.028000
     20 C9A         -0.7420     0.0840     4.6900 ca         1 BZA      -0.099000
     21 C10         -1.6550     0.0920     2.3990 ca         1 BZA      -0.089000
     22 H4C1         1.9800    -0.9280    -0.9970 hc         1 BZA       0.063200
     23 H4C2         1.9270     0.7830    -1.3520 hc         1 BZA       0.063200
     24 H9C          1.1370    -1.5430    -3.1400 h1         1 BZA       0.052700
     25 H3           3.3250    -0.8840    -3.1690 ho         1 BZA       0.501000
     26 H8B          0.4750     0.1070    -4.8410 h1         1 BZA       0.060700
     27 HO2          0.1030     2.2310    -4.0750 ho         1 BZA       0.441000
     28 H3B         -1.6910     0.7090    -3.6820 h1         1 BZA       0.034700
     29 H1          -2.2030    -1.5210    -3.5660 ho         1 BZA       0.510000
     30 H2A         -3.2380     0.1830    -1.8770 ha         1 BZA       0.105000
     31 H1A         -3.5870     0.2020     0.5430 ha         1 BZA       0.115000
     32 H5A          1.9340    -0.1550     0.9750 ha         1 BZA       0.115000
     33 H6A          2.8520    -0.1640     3.2310 ha         1 BZA       0.113000
     34 H7A          2.4970    -0.0880     5.6570 ha         1 BZA       0.113000
     35 H8A          0.2040     0.0680     6.5900 ha         1 BZA       0.113000
     36 H9A         -1.7440     0.1520     5.0960 ha         1 BZA       0.113000
     37 H10         -2.6610     0.1660     2.7980 ha         1 BZA       0.115000
@<TRIPOS>BOND
     1     1     2 1   
     2     1    10 1   
     3     1    22 1   
     4     1    23 1   
     5     2     3 1   
     6     2     4 1   
     7     2    24 1   
     8     3    25 1   
     9     4     5 1   
    10     4     6 1   
    11     4    26 1   
    12     5    27 1   
    13     6     7 1   
    14     6     8 1   
    15     6    28 1   
    16     7    29 1   
    17     8     9 ar  
    18     8    10 ar  
    19     9    11 ar  
    20     9    30 1   
    21    10    13 ar  
    22    11    19 ar  
    23    11    31 1   
    24    12    13 ar  
    25    12    17 ar  
    26    12    32 1   
    27    13    19 ar  
    28    14    15 ar  
    29    14    17 ar  
    30    14    33 1   
    31    15    16 ar  
    32    15    34 1   
    33    16    20 ar  
    34    16    35 1   
    35    17    18 ar  
    36    18    20 ar  
    37    18    21 ar  
    38    19    21 ar  
    39    20    36 1   
    40    21    37 1   
@<TRIPOS>SUBSTRUCTURE
     1 BZA         1 TEMP              0 ****  ****    0 ROOT
