@<TRIPOS>MOLECULE
BZA
   37    40     1     0     0
SMALL
No Charge or Current Charge


@<TRIPOS>ATOM
      1 C4C          1.4330    -0.2110    -1.5480 c6         1 BZA      -0.070100
      2 C9C          1.4750    -0.4710    -3.0760 c6         1 BZA       0.181300
      3 O3           2.8060    -0.2420    -3.5850 oh         1 BZA      -0.707000
      4 C8B          0.4100     0.3960    -3.8190 c6         1 BZA       0.183300
      5 O2           0.6370     1.8120    -3.6130 oh         1 BZA      -0.639000
      6 C3B         -1.0060    -0.0240    -3.3150 c6         1 BZA       0.184600
      7 O1          -1.3420    -1.3450    -3.7670 oh         1 BZA      -0.717000
      8 C3A         -1.1230     0.0010    -1.7840 ca         1 BZA      -0.124300
      9 C2A         -2.4080     0.1160    -1.2220 ca         1 BZA      -0.104000
     10 C4A          0.0160    -0.0940    -0.9380 ca         1 BZA      -0.012300
     11 C1A         -2.5790     0.1420     0.1660 ca         1 BZA      -0.100000
     12 C5A          0.9370    -0.0990     1.3700 ca         1 BZA      -0.085000
     13 C4B         -0.1610    -0.0460     0.4750 ca         1 BZA      -0.030000
     14 C6A          1.8380    -0.1110     3.6390 ca         1 BZA      -0.098000
     15 C7A          1.6370    -0.0680     5.0300 ca         1 BZA      -0.107000
     16 C8A          0.3350     0.0320     5.5490 ca         1 BZA      -0.105000
     17 C5B          0.7370    -0.0550     2.7630 ca         1 BZA      -0.035000
     18 C9B         -0.5680     0.0460     3.2850 ca         1 BZA      -0.030000
     19 C11         -1.4660     0.0650     1.0160 ca         1 BZA      -0.028000
     20 C9A         -0.7670     0.0900     4.6780 ca         1 BZA      -0.099000
     21 C10         -1.6640     0.1070     2.4090 ca         1 BZA      -0.089000
     22 H4C1         1.9820    -1.0240    -1.0560 hc         1 BZA       0.063200
     23 H4C2         1.9800     0.7160    -1.3250 hc         1 BZA       0.063200
     24 H9C          1.2080    -1.5260    -3.2380 h1         1 BZA       0.052700
     25 H3           3.3990    -0.8880    -3.1360 ho         1 BZA       0.501000
     26 H8B          0.4710     0.1650    -4.8930 h1         1 BZA       0.060700
     27 HO2          0.0590     2.2870    -4.2480 ho         1 BZA       0.441000
     28 H3B         -1.7340     0.6910    -3.7260 h1         1 BZA       0.034700
     29 H1          -2.1560    -1.6040    -3.2780 ho         1 BZA       0.510000
     30 H2A         -3.2830     0.1890    -1.8660 ha         1 BZA       0.105000
     31 H1A         -3.5810     0.2310     0.5800 ha         1 BZA       0.115000
     32 H5A          1.9560    -0.1680     1.0040 ha         1 BZA       0.115000
     33 H6A          2.8500    -0.1890     3.2460 ha         1 BZA       0.113000
     34 H7A          2.4890    -0.1120     5.7040 ha         1 BZA       0.113000
     35 H8A          0.1800     0.0650     6.6250 ha         1 BZA       0.113000
     36 H9A         -1.7720     0.1680     5.0870 ha         1 BZA       0.113000
     37 H10         -2.6710     0.1910     2.8110 ha         1 BZA       0.115000
@<TRIPOS>BOND
     1     1     2 1   
     2     1    10 1   
     3     1    22 1   
     4     1    23 1   
     5     2     3 1   
     6     2     4 1   
     7     2    24 1   
     8     3    25 1   
     9     4     5 1   
    10     4     6 1   
    11     4    26 1   
    12     5    27 1   
    13     6     7 1   
    14     6     8 1   
    15     6    28 1   
    16     7    29 1   
    17     8     9 ar  
    18     8    10 ar  
    19     9    11 ar  
    20     9    30 1   
    21    10    13 ar  
    22    11    19 ar  
    23    11    31 1   
    24    12    13 ar  
    25    12    17 ar  
    26    12    32 1   
    27    13    19 ar  
    28    14    15 ar  
    29    14    17 ar  
    30    14    33 1   
    31    15    16 ar  
    32    15    34 1   
    33    16    20 ar  
    34    16    35 1   
    35    17    18 ar  
    36    18    20 ar  
    37    18    21 ar  
    38    19    21 ar  
    39    20    36 1   
    40    21    37 1   
@<TRIPOS>SUBSTRUCTURE
     1 BZA         1 TEMP              0 ****  ****    0 ROOT
