@<TRIPOS>MOLECULE
BZC
   33    35     1     0     0
SMALL
No Charge or Current Charge


@<TRIPOS>ATOM
      1 C1          -0.2260     0.0330    -1.8760 ca         1 BZC       0.113400
      2 N2           0.2610     0.0520    -0.5770 nc         1 BZC      -0.546100
      3 C3          -0.8500    -0.0550     0.1800 cd         1 BZC       0.472400
      4 N4          -2.0250    -0.1420    -0.5750 na         1 BZC      -0.306600
      5 C5          -1.5900    -0.0830    -1.8680 ca         1 BZC      -0.090200
      6 C7          -2.3600    -0.1290    -3.0330 ca         1 BZC      -0.096000
      7 C4           0.4890     0.1140    -3.0980 ca         1 BZC      -0.090600
      8 C19         -0.7970    -0.0750     1.6620 ca         1 BZC      -0.081900
      9 C2          -0.2790     0.0690    -4.2970 ca         1 BZC      -0.110000
     10 C6          -1.6860    -0.0510    -4.2630 ca         1 BZC      -0.105000
     11 C8           2.0050     0.2440    -3.1400 c          1 BZC       0.621700
     12 N1           2.6000     0.3150    -4.3540 nt         1 BZC      -0.612000
     13 O1           2.7200     0.2880    -2.1510 o          1 BZC      -0.573100
     14 C11          0.4400     0.0180     2.3440 ca         1 BZC      -0.097000
     15 C12         -1.9790    -0.1890     2.4300 ca         1 BZC      -0.144000
     16 C13          0.5000    -0.0000     3.7480 ca         1 BZC       0.139100
     17 O2           1.7420     0.0950     4.3410 os         1 BZC      -0.334100
     18 C15         -0.6910    -0.1140     4.4950 ca         1 BZC      -0.187000
     19 C17         -1.9250    -0.2080     3.8330 ca         1 BZC      -0.076000
     20 C18          1.9140     0.0860     5.7700 c3         1 BZC       0.147900
     21 HN4         -2.9700    -0.2280    -0.2250 hn         1 BZC       0.359000
     22 H7          -3.4440    -0.2220    -2.9920 ha         1 BZC       0.119000
     23 H2           0.2000     0.1260    -5.2710 ha         1 BZC       0.114000
     24 H6          -2.2510    -0.0840    -5.1920 ha         1 BZC       0.116000
     25 HN11         3.6040     0.4010    -4.4040 hn         1 BZC       0.312500
     26 HN12         2.0460     0.2810    -5.1950 hn         1 BZC       0.312500
     27 H11          1.3700     0.1070     1.7880 ha         1 BZC       0.162000
     28 H12         -2.9500    -0.2630     1.9460 ha         1 BZC       0.105000
     29 H15         -0.6790    -0.1310     5.5810 ha         1 BZC       0.119000
     30 H17         -2.8440    -0.2950     4.4090 ha         1 BZC       0.113000
     31 H181         2.9770     0.1720     6.0250 h1         1 BZC       0.041700
     32 H182         1.3840     0.9290     6.2320 h1         1 BZC       0.041700
     33 H183         1.5350    -0.8490     6.2020 h1         1 BZC       0.041700
@<TRIPOS>BOND
     1     1     2 1   
     2     1     5 ar  
     3     1     7 ar  
     4     2     3 2   
     5     3     4 1   
     6     3     8 1   
     7     4     5 1   
     8     4    21 1   
     9     5     6 ar  
    10     6    10 ar  
    11     6    22 1   
    12     7     9 ar  
    13     7    11 1   
    14     8    14 ar  
    15     8    15 ar  
    16     9    10 ar  
    17     9    23 1   
    18    10    24 1   
    19    11    12 1   
    20    11    13 2   
    21    12    25 1   
    22    12    26 1   
    23    14    16 ar  
    24    14    27 1   
    25    15    19 ar  
    26    15    28 1   
    27    16    17 1   
    28    16    18 ar  
    29    17    20 1   
    30    18    19 ar  
    31    18    29 1   
    32    19    30 1   
    33    20    31 1   
    34    20    32 1   
    35    20    33 1   
@<TRIPOS>SUBSTRUCTURE
     1 BZC         1 TEMP              0 ****  ****    0 ROOT
