@<TRIPOS>MOLECULE
BZC
   33    35     1     0     0
SMALL
bcc


@<TRIPOS>ATOM
      1 C1          -0.2140     0.1630    -1.8540 ca         1 BZC       0.113400
      2 N2           0.2550     0.0830    -0.5720 nc         1 BZC      -0.546100
      3 C3          -0.8070    -0.0210     0.1860 cd         1 BZC       0.472400
      4 N4          -1.9600    -0.0170    -0.5340 na         1 BZC      -0.256300
      5 C5          -1.6200     0.0960    -1.8520 ca         1 BZC      -0.090200
      6 C7          -2.3820     0.1400    -3.0120 ca         1 BZC      -0.114000
      7 C4           0.4720     0.2510    -3.0730 ca         1 BZC      -0.090600
      8 C19         -0.7740    -0.1300     1.6430 ca         1 BZC      -0.081900
      9 C2          -0.2890     0.2840    -4.2340 ca         1 BZC      -0.128000
     10 C6          -1.6880     0.2370    -4.2040 ca         1 BZC      -0.123000
     11 C8           1.9600     0.3680    -3.1070 c          1 BZC       0.688700
     12 N1           2.5630    -0.2880    -4.1110 nt         1 BZC      -0.679000
     13 O1           2.5680     1.0330    -2.2810 o          1 BZC      -0.573100
     14 C11          0.4200     0.1370     2.3030 ca         1 BZC      -0.115000
     15 C12         -1.9040    -0.5010     2.3750 ca         1 BZC      -0.162000
     16 C13          0.4970     0.0440     3.6910 ca         1 BZC       0.139100
     17 O2           1.6940     0.3260     4.2340 os         1 BZC      -0.310900
     18 C15         -0.6320    -0.3220     4.4220 ca         1 BZC      -0.205000
     19 C17         -1.8190    -0.5910     3.7530 ca         1 BZC      -0.094000
     20 C18          1.8340     0.2540     5.6400 c3         1 BZC       0.124700
     21 HN4         -2.9000    -0.0550    -0.1720 hn         1 BZC       0.308700
     22 H7          -3.4630     0.1010    -2.9880 ha         1 BZC       0.137000
     23 H2           0.2020     0.3770    -5.1940 ha         1 BZC       0.132000
     24 H6          -2.2360     0.2820    -5.1360 ha         1 BZC       0.134000
     25 HN11         3.5630    -0.2420    -4.2150 hn         1 BZC       0.312500
     26 HN12         2.0650    -0.9220    -4.7120 hn         1 BZC       0.312500
     27 H11          1.2970     0.4240     1.7370 ha         1 BZC       0.180000
     28 H12         -2.8420    -0.7360     1.8890 ha         1 BZC       0.123000
     29 H15         -0.6070    -0.4030     5.5000 ha         1 BZC       0.137000
     30 H17         -2.6910    -0.8810     4.3240 ha         1 BZC       0.131000
     31 H181         2.8640     0.5200     5.8610 h1         1 BZC       0.041700
     32 H182         1.1710     0.9550     6.1530 h1         1 BZC       0.041700
     33 H183         1.6430    -0.7540     6.0180 h1         1 BZC       0.041700
@<TRIPOS>BOND
     1     1     2 1   
     2     1     5 ar  
     3     1     7 ar  
     4     2     3 2   
     5     3     4 1   
     6     3     8 1   
     7     4     5 1   
     8     4    21 1   
     9     5     6 ar  
    10     6    10 ar  
    11     6    22 1   
    12     7     9 ar  
    13     7    11 1   
    14     8    14 ar  
    15     8    15 ar  
    16     9    10 ar  
    17     9    23 1   
    18    10    24 1   
    19    11    12 1   
    20    11    13 2   
    21    12    25 1   
    22    12    26 1   
    23    14    16 ar  
    24    14    27 1   
    25    15    19 ar  
    26    15    28 1   
    27    16    17 1   
    28    16    18 ar  
    29    17    20 1   
    30    18    19 ar  
    31    18    29 1   
    32    19    30 1   
    33    20    31 1   
    34    20    32 1   
    35    20    33 1   
@<TRIPOS>SUBSTRUCTURE
     1 BZC         1 TEMP              0 ****  ****    0 ROOT
