@<TRIPOS>MOLECULE
BZD
   41    42     1     0     0
SMALL
bcc


@<TRIPOS>ATOM
      1 O5           0.8480     0.3650    -2.1810 os         1 BZD      -0.416600
      2 C1          -0.2760    -0.2980    -1.6510 c6         1 BZD       0.287500
      3 C2          -1.5470     0.1740    -2.3600 c6         1 BZD       0.076100
      4 O2          -2.6740    -0.5410    -1.9240 oh         1 BZD      -0.591800
      5 C3          -1.3990    -0.0650    -3.8560 c6         1 BZD       0.117100
      6 O3          -2.4710     0.4820    -4.5860 oh         1 BZD      -0.603800
      7 C4          -0.1160     0.5730    -4.3770 c6         1 BZD       0.119100
      8 O4           0.1160     0.2280    -5.7200 oh         1 BZD      -0.591800
      9 C5           1.0740     0.0870    -3.5480 c6         1 BZD       0.156100
     10 C6           2.3610     0.7740    -3.9510 c3         1 BZD       0.149400
     11 O6           3.4260     0.2030    -3.2290 oh         1 BZD      -0.582800
     12 N1          -0.3570    -0.0150    -0.2570 ns         1 BZD      -0.589900
     13 C7           0.1840    -0.8300     0.6890 c          1 BZD       0.802100
     14 O7           0.7110    -1.8930     0.4490 o          1 BZD      -0.549100
     15 N2           0.0260    -0.3140     1.9730 ns         1 BZD      -0.626500
     16 C8           0.5460    -0.8460     3.1310 c          1 BZD       0.697700
     17 O8           1.3250    -1.7710     3.1550 o          1 BZD      -0.515100
     18 C9           0.0940    -0.1730     4.3860 ca         1 BZD      -0.160600
     19 C10          0.9130    -0.2840     5.5090 ca         1 BZD      -0.088500
     20 C11          0.5410     0.3050     6.7060 ca         1 BZD      -0.136000
     21 C12         -0.6610     0.9960     6.7990 ca         1 BZD      -0.103000
     22 C13         -1.4900     1.0940     5.6910 ca         1 BZD      -0.136000
     23 C14         -1.1140     0.5140     4.4870 ca         1 BZD      -0.088500
     24 H1          -0.1760    -1.3830    -1.7790 h2         1 BZD       0.092700
     25 H2          -1.6630     1.2560    -2.1860 h1         1 BZD       0.048700
     26 HO2         -2.8830    -0.2750    -1.0230 ho         1 BZD       0.416000
     27 H3          -1.3260    -1.1510    -4.0220 h1         1 BZD       0.060700
     28 HO3         -3.2600    -0.0380    -4.4060 ho         1 BZD       0.427000
     29 H4          -0.1980     1.6660    -4.2580 h1         1 BZD       0.051700
     30 HO4         -0.6310     0.5380    -6.2430 ho         1 BZD       0.426000
     31 H5           1.1840    -0.9990    -3.6990 h1         1 BZD       0.069700
     32 H61          2.2640     1.8510    -3.7550 h1         1 BZD       0.034700
     33 H62          2.4930     0.6550    -5.0320 h1         1 BZD       0.034700
     34 HO6          4.2390     0.6280    -3.5150 ho         1 BZD       0.405000
     35 HN1         -0.6550     0.9150     0.0040 hn         1 BZD       0.305500
     36 HN2         -0.4970     0.5440     2.0600 hn         1 BZD       0.312500
     37 H101         1.8480    -0.8240     5.4440 ha         1 BZD       0.141000
     38 H111         1.1890     0.2230     7.5690 ha         1 BZD       0.137000
     39 H121        -0.9520     1.4540     7.7360 ha         1 BZD       0.135000
     40 H131        -2.4330     1.6190     5.7610 ha         1 BZD       0.137000
     41 H141        -1.7930     0.5870     3.6470 ha         1 BZD       0.141000
@<TRIPOS>BOND
     1     1     2 1   
     2     1     9 1   
     3     2     3 1   
     4     2    12 1   
     5     2    24 1   
     6     3     4 1   
     7     3     5 1   
     8     3    25 1   
     9     4    26 1   
    10     5     6 1   
    11     5     7 1   
    12     5    27 1   
    13     6    28 1   
    14     7     8 1   
    15     7     9 1   
    16     7    29 1   
    17     8    30 1   
    18     9    10 1   
    19     9    31 1   
    20    10    11 1   
    21    10    32 1   
    22    10    33 1   
    23    11    34 1   
    24    12    13 1   
    25    12    35 1   
    26    13    14 2   
    27    13    15 1   
    28    15    16 1   
    29    15    36 1   
    30    16    17 2   
    31    16    18 1   
    32    18    19 ar  
    33    18    23 ar  
    34    19    20 ar  
    35    19    37 1   
    36    20    21 ar  
    37    20    38 1   
    38    21    22 ar  
    39    21    39 1   
    40    22    23 ar  
    41    22    40 1   
    42    23    41 1   
@<TRIPOS>SUBSTRUCTURE
     1 BZD         1 TEMP              0 ****  ****    0 ROOT
