@<TRIPOS>MOLECULE
BZD
   41    42     1     0     0
SMALL
No Charge or Current Charge


@<TRIPOS>ATOM
      1 O5           0.7490     0.2480    -2.1080 os         1 BZD      -0.463000
      2 C1          -0.3910    -0.5240    -1.6880 c6         1 BZD       0.310700
      3 C2          -1.6670    -0.0120    -2.4400 c6         1 BZD       0.099300
      4 O2          -2.8570    -0.7570    -2.0850 oh         1 BZD      -0.714000
      5 C3          -1.4230    -0.1160    -3.9720 c6         1 BZD       0.140300
      6 O3          -2.5660     0.3810    -4.6890 oh         1 BZD      -0.666000
      7 C4          -0.1350     0.6600    -4.3730 c6         1 BZD       0.142300
      8 O4           0.0930     0.5220    -5.7880 oh         1 BZD      -0.714000
      9 C5           1.0650     0.1350    -3.5230 c6         1 BZD       0.179300
     10 C6           2.3840     0.9310    -3.8020 c3         1 BZD       0.172600
     11 O6           3.4990     0.4970    -2.9950 oh         1 BZD      -0.705000
     12 N1          -0.5000    -0.3250    -0.2480 ns         1 BZD      -0.522900
     13 C7           0.2390    -1.0060     0.6790 c          1 BZD       0.668100
     14 O7           0.9620    -1.9440     0.3890 o          1 BZD      -0.549100
     15 N2           0.0570    -0.5260     1.9410 ns         1 BZD      -0.492500
     16 C8           0.6080    -0.9390     3.1290 c          1 BZD       0.630700
     17 O8           1.3960    -1.8720     3.1960 o          1 BZD      -0.515100
     18 C9           0.1840    -0.1700     4.3690 ca         1 BZD      -0.160600
     19 C10          0.7130    -0.5440     5.6280 ca         1 BZD      -0.070500
     20 C11          0.3450     0.1430     6.7970 ca         1 BZD      -0.118000
     21 C12         -0.5570     1.2150     6.7310 ca         1 BZD      -0.085000
     22 C13         -1.0910     1.6000     5.4920 ca         1 BZD      -0.118000
     23 C14         -0.7270     0.9160     4.3180 ca         1 BZD      -0.070500
     24 H1          -0.2280    -1.5930    -1.9050 h2         1 BZD       0.092700
     25 H2          -1.8050     1.0500    -2.1850 h1         1 BZD       0.048700
     26 HO2         -2.9200    -0.7650    -1.1000 ho         1 BZD       0.515000
     27 H3          -1.2700    -1.1800    -4.2150 h1         1 BZD       0.060700
     28 HO3         -3.3400     0.0810    -4.1570 ho         1 BZD       0.466000
     29 H4          -0.2860     1.7230    -4.1260 h1         1 BZD       0.051700
     30 HO4         -0.8050     0.5920    -6.1970 ho         1 BZD       0.525000
     31 H5           1.2480    -0.9220    -3.7630 h1         1 BZD       0.069700
     32 H61          2.1830     1.9960    -3.6240 h1         1 BZD       0.034700
     33 H62          2.6320     0.8220    -4.8670 h1         1 BZD       0.034700
     34 HO6          4.2520     1.1000    -3.1970 ho         1 BZD       0.504000
     35 HN1         -1.0360     0.4670     0.0760 hn         1 BZD       0.305500
     36 HN2         -0.5750     0.2500     2.0180 hn         1 BZD       0.312500
     37 H101         1.4150    -1.3720     5.7070 ha         1 BZD       0.123000
     38 H111         0.7610    -0.1570     7.7560 ha         1 BZD       0.119000
     39 H121        -0.8410     1.7460     7.6370 ha         1 BZD       0.117000
     40 H131        -1.7910     2.4310     5.4400 ha         1 BZD       0.119000
     41 H141        -1.1660     1.2490     3.3810 ha         1 BZD       0.123000
@<TRIPOS>BOND
     1     1     2 1   
     2     1     9 1   
     3     2     3 1   
     4     2    12 1   
     5     2    24 1   
     6     3     4 1   
     7     3     5 1   
     8     3    25 1   
     9     4    26 1   
    10     5     6 1   
    11     5     7 1   
    12     5    27 1   
    13     6    28 1   
    14     7     8 1   
    15     7     9 1   
    16     7    29 1   
    17     8    30 1   
    18     9    10 1   
    19     9    31 1   
    20    10    11 1   
    21    10    32 1   
    22    10    33 1   
    23    11    34 1   
    24    12    13 1   
    25    12    35 1   
    26    13    14 2   
    27    13    15 1   
    28    15    16 1   
    29    15    36 1   
    30    16    17 2   
    31    16    18 1   
    32    18    19 ar  
    33    18    23 ar  
    34    19    20 ar  
    35    19    37 1   
    36    20    21 ar  
    37    20    38 1   
    38    21    22 ar  
    39    21    39 1   
    40    22    23 ar  
    41    22    40 1   
    42    23    41 1   
@<TRIPOS>SUBSTRUCTURE
     1 BZD         1 TEMP              0 ****  ****    0 ROOT
