@<TRIPOS>MOLECULE
BZE
   23    24     1     0     0
SMALL
abcg2


@<TRIPOS>ATOM
      1 N13         -2.8100     2.2920     0.0180 nv         1 BZE      -1.072900
      2 C8          -2.1530     1.1300     0.0150 ca         1 BZE       0.441900
      3 N11         -2.8720     0.0100     0.0140 nb         1 BZE      -0.364000
      4 C7          -2.1540    -1.1110     0.0100 ca         1 BZE       0.441900
      5 N12         -2.8130    -2.2720     0.0080 nv         1 BZE      -1.072900
      6 N3          -0.8140    -1.1680     0.0080 nb         1 BZE      -0.327500
      7 N4          -0.8120     1.1850     0.0110 nb         1 BZE      -0.327500
      8 C1          -0.2070     0.0080     0.0100 cp         1 BZE       0.285500
      9 C2           1.2750     0.0070     0.0090 cp         1 BZE      -0.160500
     10 C6           1.9820     1.2090     0.0130 ca         1 BZE      -0.060000
     11 C10          3.3690     1.2080     0.0110 ca         1 BZE      -0.131000
     12 C14          4.0650     0.0050     0.0090 ca         1 BZE      -0.090000
     13 C9           3.3670    -1.1960     0.0060 ca         1 BZE      -0.131000
     14 C5           1.9810    -1.1960     0.0060 ca         1 BZE      -0.060000
     15 H1          -2.3070     3.1620     0.0180 hn         1 BZE       0.506250
     16 H2          -3.8140     2.3100     0.0190 hn         1 BZE       0.506250
     17 H3          -3.8170    -2.2890     0.0050 hn         1 BZE       0.506250
     18 H4          -2.3130    -3.1430     0.0000 hn         1 BZE       0.506250
     19 H5           1.4400     2.1450     0.0160 ha         1 BZE       0.134000
     20 H6           3.9080     2.1460     0.0120 ha         1 BZE       0.113000
     21 H7           5.1470     0.0050     0.0080 ha         1 BZE       0.111000
     22 H8           3.9050    -2.1350     0.0040 ha         1 BZE       0.113000
     23 H9           1.4380    -2.1320     0.0040 ha         1 BZE       0.134000
@<TRIPOS>BOND
     1     1     2 1   
     2     1    15 1   
     3     1    16 1   
     4     2     3 ar  
     5     2     7 ar  
     6     3     4 ar  
     7     4     5 1   
     8     4     6 ar  
     9     5    17 1   
    10     5    18 1   
    11     6     8 ar  
    12     7     8 ar  
    13     8     9 1   
    14     9    10 ar  
    15     9    14 ar  
    16    10    11 ar  
    17    10    19 1   
    18    11    12 ar  
    19    11    20 1   
    20    12    13 ar  
    21    12    21 1   
    22    13    14 ar  
    23    13    22 1   
    24    14    23 1   
@<TRIPOS>SUBSTRUCTURE
     1 BZE         1 TEMP              0 ****  ****    0 ROOT
