@<TRIPOS>MOLECULE
BZE
   23    24     1     0     0
SMALL
No Charge or Current Charge


@<TRIPOS>ATOM
      1 N13         -2.8780     2.2890    -0.0670 nv         1 BZE      -1.072900
      2 C8          -2.2050     1.1220    -0.0270 ca         1 BZE       0.441900
      3 N11         -2.9400     0.0090     0.0120 nb         1 BZE      -0.364000
      4 C7          -2.2060    -1.1040     0.0500 ca         1 BZE       0.441900
      5 N12         -2.8810    -2.2700     0.0900 nv         1 BZE      -1.072900
      6 N3          -0.8710    -1.1790     0.0510 nb         1 BZE      -0.327500
      7 N4          -0.8700     1.1950    -0.0300 nb         1 BZE      -0.327500
      8 C1          -0.2240     0.0080     0.0100 cp         1 BZE       0.285500
      9 C2           1.2840     0.0070     0.0100 cp         1 BZE      -0.160500
     10 C6           2.0270     1.2210    -0.0370 ca         1 BZE      -0.060000
     11 C10          3.4330     1.2180    -0.0380 ca         1 BZE      -0.131000
     12 C14          4.1360     0.0060     0.0080 ca         1 BZE      -0.090000
     13 C9           3.4310    -1.2060     0.0550 ca         1 BZE      -0.131000
     14 C5           2.0260    -1.2070     0.0560 ca         1 BZE      -0.060000
     15 H1          -2.3660     3.1390     0.1530 hn         1 BZE       0.506250
     16 H2          -3.8650     2.2790     0.1800 hn         1 BZE       0.506250
     17 H3          -3.8670    -2.2530    -0.1560 hn         1 BZE       0.506250
     18 H4          -2.3750    -3.1240    -0.1290 hn         1 BZE       0.506250
     19 H5           1.5150     2.1800    -0.0740 ha         1 BZE       0.134000
     20 H6           3.9760     2.1590    -0.0750 ha         1 BZE       0.113000
     21 H7           5.2250     0.0050     0.0080 ha         1 BZE       0.111000
     22 H8           3.9740    -2.1480     0.0910 ha         1 BZE       0.113000
     23 H9           1.5120    -2.1660     0.0930 ha         1 BZE       0.134000
@<TRIPOS>BOND
     1     1     2 1   
     2     1    15 1   
     3     1    16 1   
     4     2     3 ar  
     5     2     7 ar  
     6     3     4 ar  
     7     4     5 1   
     8     4     6 ar  
     9     5    17 1   
    10     5    18 1   
    11     6     8 ar  
    12     7     8 ar  
    13     8     9 1   
    14     9    10 ar  
    15     9    14 ar  
    16    10    11 ar  
    17    10    19 1   
    18    11    12 ar  
    19    11    20 1   
    20    12    13 ar  
    21    12    21 1   
    22    13    14 ar  
    23    13    22 1   
    24    14    23 1   
@<TRIPOS>SUBSTRUCTURE
     1 BZE         1 TEMP              0 ****  ****    0 ROOT
