@<TRIPOS>MOLECULE
BZF
   15    16     1     0     0
SMALL
abcg2


@<TRIPOS>ATOM
      1 O1           1.0630    -0.0390    -1.5070 os         1 BZF      -0.174200
      2 C2          -0.0340    -0.0350    -2.3090 cc         1 BZF      -0.070900
      3 C3          -1.1800    -0.0020    -1.6010 cd         1 BZF      -0.238200
      4 C3A         -0.7850     0.0170    -0.2190 ca         1 BZF      -0.112800
      5 C4          -1.4520     0.0510     1.0070 ca         1 BZF      -0.060000
      6 C5          -0.6950     0.0590     2.1650 ca         1 BZF      -0.131000
      7 C6           0.7060     0.0350     2.1190 ca         1 BZF      -0.093000
      8 C7           1.3880     0.0010     0.9130 ca         1 BZF      -0.104000
      9 C7A          0.6110    -0.0070    -0.2330 ca         1 BZF       0.056100
     10 H2           0.1570    -0.0580    -3.3700 h4         1 BZF       0.237000
     11 H3          -2.1800     0.0070    -2.0050 ha         1 BZF       0.213000
     12 H4          -2.5330     0.0700     1.0530 ha         1 BZF       0.119000
     13 H5          -1.1900     0.0850     3.1270 ha         1 BZF       0.114000
     14 H6           1.2680     0.0430     3.0430 ha         1 BZF       0.115000
     15 H7           2.4690    -0.0180     0.8720 ha         1 BZF       0.130000
@<TRIPOS>BOND
     1     1     2 1   
     2     1     9 1   
     3     2     3 2   
     4     2    10 1   
     5     3     4 1   
     6     3    11 1   
     7     4     5 ar  
     8     4     9 ar  
     9     5     6 ar  
    10     5    12 1   
    11     6     7 ar  
    12     6    13 1   
    13     7     8 ar  
    14     7    14 1   
    15     8     9 ar  
    16     8    15 1   
@<TRIPOS>SUBSTRUCTURE
     1 BZF         1 TEMP              0 ****  ****    0 ROOT
