@<TRIPOS>MOLECULE
BZF
   15    16     1     0     0
SMALL
No Charge or Current Charge


@<TRIPOS>ATOM
      1 O1           1.1110    -0.0400    -1.5490 os         1 BZF      -0.174200
      2 C2          -0.0290    -0.0360    -2.3590 cc         1 BZF      -0.070900
      3 C3          -1.1630    -0.0020    -1.5700 cd         1 BZF      -0.238200
      4 C3A         -0.7460     0.0160    -0.2070 ca         1 BZF      -0.112800
      5 C4          -1.4600     0.0510     0.9960 ca         1 BZF      -0.060000
      6 C5          -0.7110     0.0600     2.1930 ca         1 BZF      -0.131000
      7 C6           0.7060     0.0360     2.1530 ca         1 BZF      -0.093000
      8 C7           1.3880     0.0010     0.9160 ca         1 BZF      -0.104000
      9 C7A          0.6220    -0.0080    -0.2580 ca         1 BZF       0.056100
     10 H2           0.1120    -0.0580    -3.4370 h4         1 BZF       0.237000
     11 H3          -2.1890     0.0080    -1.9350 ha         1 BZF       0.213000
     12 H4          -2.5480     0.0690     1.0090 ha         1 BZF       0.119000
     13 H5          -1.2250     0.0870     3.1510 ha         1 BZF       0.114000
     14 H6           1.2730     0.0430     3.0820 ha         1 BZF       0.115000
     15 H7           2.4740    -0.0180     0.8720 ha         1 BZF       0.130000
@<TRIPOS>BOND
     1     1     2 1   
     2     1     9 1   
     3     2     3 2   
     4     2    10 1   
     5     3     4 1   
     6     3    11 1   
     7     4     5 ar  
     8     4     9 ar  
     9     5     6 ar  
    10     5    12 1   
    11     6     7 ar  
    12     6    13 1   
    13     7     8 ar  
    14     7    14 1   
    15     8     9 ar  
    16     8    15 1   
@<TRIPOS>SUBSTRUCTURE
     1 BZF         1 TEMP              0 ****  ****    0 ROOT
