@<TRIPOS>MOLECULE
BZH
   32    33     1     0     0
SMALL
bcc


@<TRIPOS>ATOM
      1 C8          -2.1240    -0.7870    -4.3640 ca         1 BZH      -0.160000
      2 C9          -3.1200    -0.5520    -5.2970 ca         1 BZH      -0.052200
      3 N1          -3.6430    -1.3460    -6.2890 na         1 BZH      -0.296300
      4 C2          -4.6150    -0.6210    -6.9140 cc         1 BZH       0.608700
      5 N10         -5.3710    -1.1580    -7.9040 nv         1 BZH      -0.896800
      6 N3          -4.7620     0.5790    -6.4130 nd         1 BZH      -0.637100
      7 C4          -3.8400     0.6490    -5.3930 ca         1 BZH       0.061400
      8 C5          -3.5400     1.6760    -4.5060 ca         1 BZH      -0.060000
      9 C6          -2.5470     1.4660    -3.5640 ca         1 BZH      -0.203000
     10 C7          -1.8420     0.2540    -3.4780 ca         1 BZH       0.093600
     11 N11         -0.8860     0.1700    -2.4540 ns         1 BZH      -0.481100
     12 C12          0.0560    -0.7770    -2.2240 c          1 BZH       0.670100
     13 O19          0.1960    -1.7740    -2.9130 o          1 BZH      -0.586100
     14 C13          0.9480    -0.4810    -1.0360 c3         1 BZH      -0.158400
     15 C14          1.4070    -1.7380    -0.3050 c3         1 BZH      -0.046400
     16 C15          2.2880    -1.4030     0.8870 c3         1 BZH      -0.209400
     17 C16          2.7830    -2.6080     1.7080 c          1 BZH       0.928600
     18 O18          3.5060    -2.3380     2.6900 o          1 BZH      -0.843300
     19 O17          2.4350    -3.7480     1.3400 o          1 BZH      -0.843300
     20 H8          -1.6030    -1.7300    -4.3270 ha         1 BZH       0.174000
     21 HN1         -3.3800    -2.2950    -6.5010 hn         1 BZH       0.304700
     22 H101        -4.9400    -1.8640    -8.4800 hn         1 BZH       0.410300
     23 H102        -5.9030    -0.4880    -8.4360 hn         1 BZH       0.410300
     24 H5          -4.0660     2.6210    -4.5440 ha         1 BZH       0.138000
     25 H6          -2.3080     2.2620    -2.8680 ha         1 BZH       0.125000
     26 HN11        -0.8870     0.9530    -1.8200 hn         1 BZH       0.314500
     27 H131         1.8180     0.0700    -1.4120 hc         1 BZH       0.046200
     28 H132         0.4440     0.1940    -0.3400 hc         1 BZH       0.046200
     29 H141         0.5330    -2.3020     0.0290 hc         1 BZH       0.057200
     30 H142         1.9460    -2.3870    -0.9970 hc         1 BZH       0.057200
     31 H151         1.7540    -0.7290     1.5650 hc         1 BZH       0.014200
     32 H152         3.1630    -0.8320     0.5520 hc         1 BZH       0.014200
@<TRIPOS>BOND
     1     1     2 ar  
     2     1    10 ar  
     3     1    20 1   
     4     2     3 1   
     5     2     7 ar  
     6     3     4 1   
     7     3    21 1   
     8     4     5 1   
     9     4     6 2   
    10     5    22 1   
    11     5    23 1   
    12     6     7 1   
    13     7     8 ar  
    14     8     9 ar  
    15     8    24 1   
    16     9    10 ar  
    17     9    25 1   
    18    10    11 1   
    19    11    12 1   
    20    11    26 1   
    21    12    13 2   
    22    12    14 1   
    23    14    15 1   
    24    14    27 1   
    25    14    28 1   
    26    15    16 1   
    27    15    29 1   
    28    15    30 1   
    29    16    17 1   
    30    16    31 1   
    31    16    32 1   
    32    17    18 1   
    33    17    19 1   
@<TRIPOS>SUBSTRUCTURE
     1 BZH         1 TEMP              0 ****  ****    0 ROOT
