@<TRIPOS>MOLECULE
BZH
   32    33     1     0     0
SMALL
No Charge or Current Charge


@<TRIPOS>ATOM
      1 C8          -1.9740    -0.7560    -4.5410 ca         1 BZH      -0.142000
      2 C9          -3.1140    -0.5500    -5.3270 ca         1 BZH      -0.052200
      3 N1          -3.5970    -1.2650    -6.3800 na         1 BZH      -0.346600
      4 C2          -4.7440    -0.6190    -6.7760 cc         1 BZH       0.608700
      5 N10         -5.4920    -1.0400    -7.7950 nv         1 BZH      -1.007200
      6 N3          -5.0310     0.4580    -6.0530 nd         1 BZH      -0.637100
      7 C4          -3.9820     0.4890    -5.1320 ca         1 BZH       0.061400
      8 C5          -3.7570     1.4150    -4.1050 ca         1 BZH      -0.042000
      9 C6          -2.6170     1.2440    -3.2870 ca         1 BZH      -0.185000
     10 C7          -1.7180     0.1660    -3.4950 ca         1 BZH       0.001000
     11 N11         -0.6000     0.0720    -2.6230 ns         1 BZH      -0.155000
     12 C12          0.4750    -0.8060    -2.5720 c          1 BZH       0.603100
     13 O19          0.6630    -1.7190    -3.3680 o          1 BZH      -0.586100
     14 C13          1.4660    -0.5210    -1.4330 c3         1 BZH      -0.158400
     15 C14          1.3620    -1.5780    -0.3070 c3         1 BZH      -0.046400
     16 C15          2.3410    -1.3150     0.8630 c3         1 BZH      -0.209400
     17 C16          2.1840    -2.4030     1.9410 c          1 BZH       0.718000
     18 O18          1.3560    -2.2260     2.8210 o          1 BZH      -0.738000
     19 O17          2.8550    -3.4180     1.8360 o          1 BZH      -0.738000
     20 H8          -1.3270    -1.6030    -4.7450 ha         1 BZH       0.156000
     21 HN1         -3.2140    -2.1060    -6.7860 hn         1 BZH       0.355000
     22 H101        -5.0550    -1.6480    -8.4790 hn         1 BZH       0.465500
     23 H102        -6.1790    -0.3830    -8.1470 hn         1 BZH       0.465500
     24 H5          -4.4420     2.2430    -3.9430 ha         1 BZH       0.120000
     25 H6          -2.4310     1.9560    -2.4860 ha         1 BZH       0.107000
     26 HN11        -0.5890     0.7780    -1.8980 hn         1 BZH       0.148000
     27 H131         2.4850    -0.5470    -1.8390 hc         1 BZH       0.046200
     28 H132         1.2660     0.4670    -1.0010 hc         1 BZH       0.046200
     29 H141         0.3340    -1.5940     0.0790 hc         1 BZH       0.057200
     30 H142         1.5590    -2.5740    -0.7260 hc         1 BZH       0.057200
     31 H151         2.0690    -0.3320     1.2670 hc         1 BZH       0.014200
     32 H152         3.3470    -1.3490     0.4260 hc         1 BZH       0.014200
@<TRIPOS>BOND
     1     1     2 ar  
     2     1    10 ar  
     3     1    20 1   
     4     2     3 1   
     5     2     7 ar  
     6     3     4 1   
     7     3    21 1   
     8     4     5 1   
     9     4     6 2   
    10     5    22 1   
    11     5    23 1   
    12     6     7 1   
    13     7     8 ar  
    14     8     9 ar  
    15     8    24 1   
    16     9    10 ar  
    17     9    25 1   
    18    10    11 1   
    19    11    12 1   
    20    11    26 1   
    21    12    13 2   
    22    12    14 1   
    23    14    15 1   
    24    14    27 1   
    25    14    28 1   
    26    15    16 1   
    27    15    29 1   
    28    15    30 1   
    29    16    17 1   
    30    16    31 1   
    31    16    32 1   
    32    17    18 1   
    33    17    19 1   
@<TRIPOS>SUBSTRUCTURE
     1 BZH         1 TEMP              0 ****  ****    0 ROOT
