@<TRIPOS>MOLECULE
BZI
   15    16     1     0     0
SMALL
abcg2


@<TRIPOS>ATOM
      1 N1          -1.0310     0.0150     1.5760 na         1 BZI      -0.318600
      2 C2           0.1170     0.0330     2.2940 cc         1 BZI       0.413700
      3 N3           1.1910     0.0240     1.5570 nd         1 BZI      -0.573100
      4 C3A          0.7270    -0.0010     0.2610 ca         1 BZI       0.064400
      5 C4           1.4260    -0.0190    -0.9460 ca         1 BZI      -0.047000
      6 C5           0.6960    -0.0410    -2.1190 ca         1 BZI      -0.136000
      7 C6          -0.7080    -0.0470    -2.1070 ca         1 BZI      -0.093000
      8 C7          -1.4220    -0.0290    -0.9220 ca         1 BZI      -0.116000
      9 C7A         -0.6790    -0.0060     0.2540 ca         1 BZI      -0.082200
     10 HN1         -1.9650     0.0200     1.9560 hn         1 BZI       0.356000
     11 H2           0.1020     0.0510     3.3730 h5         1 BZI       0.060800
     12 H4           2.5090    -0.0150    -0.9590 ha         1 BZI       0.128000
     13 H5           1.2140    -0.0550    -3.0700 ha         1 BZI       0.114000
     14 H6          -1.2450    -0.0660    -3.0470 ha         1 BZI       0.112000
     15 H7          -2.5040    -0.0340    -0.9150 ha         1 BZI       0.116000
@<TRIPOS>BOND
     1     1     2 1   
     2     1     9 1   
     3     1    10 1   
     4     2     3 2   
     5     2    11 1   
     6     3     4 1   
     7     4     5 ar  
     8     4     9 ar  
     9     5     6 ar  
    10     5    12 1   
    11     6     7 ar  
    12     6    13 1   
    13     7     8 ar  
    14     7    14 1   
    15     8     9 ar  
    16     8    15 1   
@<TRIPOS>SUBSTRUCTURE
     1 BZI         1 TEMP              0 ****  ****    0 ROOT
