@<TRIPOS>MOLECULE
BZI
   15    16     1     0     0
SMALL
No Charge or Current Charge


@<TRIPOS>ATOM
      1 N1          -1.0410     0.0150     1.5660 na         1 BZI      -0.318600
      2 C2           0.1170     0.0330     2.3410 cc         1 BZI       0.413700
      3 N3           1.2200     0.0240     1.5600 nd         1 BZI      -0.573100
      4 C3A          0.7150    -0.0000     0.2630 ca         1 BZI       0.064400
      5 C4           1.4290    -0.0190    -0.9450 ca         1 BZI      -0.047000
      6 C5           0.6980    -0.0420    -2.1550 ca         1 BZI      -0.136000
      7 C6          -0.7190    -0.0480    -2.1380 ca         1 BZI      -0.093000
      8 C7          -1.4140    -0.0290    -0.9100 ca         1 BZI      -0.116000
      9 C7A         -0.6500    -0.0060     0.2630 ca         1 BZI      -0.082200
     10 HN1         -1.9890     0.0180     1.9210 hn         1 BZI       0.356000
     11 H2           0.0930     0.0520     3.4240 h5         1 BZI       0.060800
     12 H4           2.5160    -0.0140    -0.9480 ha         1 BZI       0.128000
     13 H5           1.2270    -0.0570    -3.1050 ha         1 BZI       0.114000
     14 H6          -1.2730    -0.0660    -3.0740 ha         1 BZI       0.112000
     15 H7          -2.5010    -0.0330    -0.8790 ha         1 BZI       0.116000
@<TRIPOS>BOND
     1     1     2 1   
     2     1     9 1   
     3     1    10 1   
     4     2     3 2   
     5     2    11 1   
     6     3     4 1   
     7     4     5 ar  
     8     4     9 ar  
     9     5     6 ar  
    10     5    12 1   
    11     6     7 ar  
    12     6    13 1   
    13     7     8 ar  
    14     7    14 1   
    15     8     9 ar  
    16     8    15 1   
@<TRIPOS>SUBSTRUCTURE
     1 BZI         1 TEMP              0 ****  ****    0 ROOT
