@<TRIPOS>MOLECULE
BZJ
   21    22     1     0     0
SMALL
bcc


@<TRIPOS>ATOM
      1 C10          2.6260     0.5620     0.0610 c          1 BZJ       0.932200
      2 O1           2.8730     1.7690     0.0420 o          1 BZJ      -0.798300
      3 O            3.4940    -0.3650     0.0890 o          1 BZJ      -0.798300
      4 C6           1.1850     0.1050     0.0500 ca         1 BZJ      -0.239600
      5 C7           0.1630     1.0160     0.0110 ca         1 BZJ      -0.060000
      6 C8          -1.1910     0.6210    -0.0050 ca         1 BZJ      -0.101000
      7 C3          -1.4930    -0.7670     0.0200 ca         1 BZJ       0.019000
      8 C4          -0.4410    -1.7040     0.0610 ca         1 BZJ      -0.267000
      9 C5           0.8740    -1.2930     0.0750 ca         1 BZJ       0.226100
     10 O2           1.8590    -2.1870     0.1110 oh         1 BZJ      -0.587100
     11 C2          -2.8540    -1.1630     0.0020 ca         1 BZJ      -0.141000
     12 C1          -3.8540    -0.2300    -0.0400 ca         1 BZJ      -0.135000
     13 C           -3.5520     1.1490    -0.0660 ca         1 BZJ      -0.184000
     14 C9          -2.2480     1.5610    -0.0480 ca         1 BZJ      -0.089000
     15 H2           0.4000     2.0730    -0.0090 ha         1 BZJ       0.142000
     16 H3          -0.6680    -2.7640     0.0790 ha         1 BZJ       0.124000
     17 H4           2.7090    -1.6140     0.1090 ho         1 BZJ       0.510000
     18 H5          -3.0930    -2.2200     0.0210 ha         1 BZJ       0.115000
     19 H6          -4.8890    -0.5490    -0.0540 ha         1 BZJ       0.105000
     20 H7          -4.3540     1.8750    -0.0990 ha         1 BZJ       0.108000
     21 H8          -2.0080     2.6180    -0.0680 ha         1 BZJ       0.117000
@<TRIPOS>BOND
     1     1     2 1   
     2     1     3 1   
     3     1     4 1   
     4     4     5 ar  
     5     4     9 ar  
     6     5     6 ar  
     7     5    15 1   
     8     6     7 ar  
     9     6    14 ar  
    10     7     8 ar  
    11     7    11 ar  
    12     8     9 ar  
    13     8    16 1   
    14     9    10 1   
    15    10    17 1   
    16    11    12 ar  
    17    11    18 1   
    18    12    13 ar  
    19    12    19 1   
    20    13    14 ar  
    21    13    20 1   
    22    14    21 1   
@<TRIPOS>SUBSTRUCTURE
     1 BZJ         1 TEMP              0 ****  ****    0 ROOT
