@<TRIPOS>MOLECULE
BZJ
   21    22     1     0     0
SMALL
No Charge or Current Charge


@<TRIPOS>ATOM
      1 C10          2.6500     0.5620     0.0630 c          1 BZJ       0.721600
      2 O1           2.8770     1.7620     0.0400 o          1 BZJ      -0.693000
      3 O            3.5320    -0.2880     0.0980 o          1 BZJ      -0.693000
      4 C6           1.2100     0.0930     0.0470 ca         1 BZJ      -0.239600
      5 C7           0.1560     1.0380     0.0070 ca         1 BZJ      -0.042000
      6 C8          -1.1880     0.6180    -0.0080 ca         1 BZJ      -0.101000
      7 C3          -1.4960    -0.7570     0.0170 ca         1 BZJ       0.019000
      8 C4          -0.4570    -1.7000     0.0570 ca         1 BZJ      -0.249000
      9 C5           0.8790    -1.2810     0.0720 ca         1 BZJ       0.226100
     10 O2           1.8530    -2.2250     0.1110 oh         1 BZJ      -0.626100
     11 C2          -2.8390    -1.1770     0.0020 ca         1 BZJ      -0.123000
     12 C1          -3.8740    -0.2270    -0.0390 ca         1 BZJ      -0.117000
     13 C           -3.5680     1.1440    -0.0640 ca         1 BZJ      -0.166000
     14 C9          -2.2280     1.5670    -0.0490 ca         1 BZJ      -0.071000
     15 H2           0.3770     2.1030    -0.0130 ha         1 BZJ       0.124000
     16 H3          -0.6860    -2.7620     0.0770 ha         1 BZJ       0.106000
     17 H4           2.7030    -1.6960     0.1150 ho         1 BZJ       0.549000
     18 H5          -3.0820    -2.2370     0.0210 ha         1 BZJ       0.097000
     19 H6          -4.9120    -0.5540    -0.0500 ha         1 BZJ       0.087000
     20 H7          -4.3690     1.8790    -0.0950 ha         1 BZJ       0.090000
     21 H8          -2.0010     2.6310    -0.0690 ha         1 BZJ       0.099000
@<TRIPOS>BOND
     1     1     2 1   
     2     1     3 1   
     3     1     4 1   
     4     4     5 ar  
     5     4     9 ar  
     6     5     6 ar  
     7     5    15 1   
     8     6     7 ar  
     9     6    14 ar  
    10     7     8 ar  
    11     7    11 ar  
    12     8     9 ar  
    13     8    16 1   
    14     9    10 1   
    15    10    17 1   
    16    11    12 ar  
    17    11    18 1   
    18    12    13 ar  
    19    12    19 1   
    20    13    14 ar  
    21    13    20 1   
    22    14    21 1   
@<TRIPOS>SUBSTRUCTURE
     1 BZJ         1 TEMP              0 ****  ****    0 ROOT
