@<TRIPOS>MOLECULE
BZK
   36    35     1     0     0
SMALL
No Charge or Current Charge


@<TRIPOS>ATOM
      1 N           20.4760     8.6100    12.4170 n8         1 BZK      -0.891800
      2 CA          21.5130     9.0160    13.4370 c3         1 BZK       0.023500
      3 CB          20.8620     9.8720    14.5670 c3         1 BZK      -0.045400
      4 C           22.4280     7.8470    14.0320 c          1 BZK       0.929600
      5 O           22.1120     7.3000    15.0860 o          1 BZK      -0.838300
      6 CG1         20.1570    11.1960    14.1270 c3         1 BZK      -0.057700
      7 CGB         21.1150    12.1480    13.3660 c3         1 BZK      -0.081100
      8 CD          19.5150    11.9510    15.3310 c3         1 BZK      -0.061400
      9 CE          18.3980    11.1950    16.1050 c3         1 BZK       0.160100
     10 OE          17.3370    10.8590    15.2080 oh         1 BZK      -0.588800
     11 CZ          17.7880    12.0190    17.2590 c3         1 BZK      -0.220400
     12 CH          18.8190    12.3890    18.3350 c          1 BZK       0.566100
     13 OH          19.4510    11.5270    18.9320 o          1 BZK      -0.502100
     14 CI          18.9830    13.8790    18.6790 c3         1 BZK      -0.182400
     15 CK          20.1670    14.5200    17.9240 c3         1 BZK      -0.076100
     16 H1          20.0270     9.4510    12.0430 hn         1 BZK       0.324300
     17 H2          20.9460     8.1870    11.6100 hn         1 BZK       0.324300
     18 HA          22.2080     9.6720    12.8980 h1         1 BZK      -0.006300
     19 HB2         20.1420     9.2360    15.0940 hc         1 BZK       0.046700
     20 HB1         21.6400    10.1250    15.2990 hc         1 BZK       0.046700
     21 HG1         19.3470    10.9380    13.4340 hc         1 BZK       0.060700
     22 H4          20.6100    13.0890    13.1170 hc         1 BZK       0.020033
     23 HGB         21.9960    12.3840    13.9750 hc         1 BZK       0.020033
     24 H5          21.4530    11.7040    12.4230 hc         1 BZK       0.020033
     25 HD2         20.3170    12.2120    16.0310 hc         1 BZK       0.030200
     26 HD1         19.0970    12.9000    14.9710 hc         1 BZK       0.030200
     27 HE          18.8280    10.2800    16.5370 h1         1 BZK       0.069700
     28 HOE         16.6670    10.3650    15.7250 ho         1 BZK       0.391000
     29 HZ2         17.3150    12.9240    16.8610 hc         1 BZK       0.053700
     30 HZ1         17.0110    11.4170    17.7450 hc         1 BZK       0.053700
     31 HI1         18.0810    14.4310    18.3890 hc         1 BZK       0.053700
     32 HI2         19.1610    13.9830    19.7560 hc         1 BZK       0.053700
     33 HK2         20.2990    15.5630    18.2360 hc         1 BZK       0.037367
     34 HK1         21.1000    13.9810    18.1310 hc         1 BZK       0.037367
     35 HK3         19.9920    14.5110    16.8420 hc         1 BZK       0.037367
     36 OXT         23.4360     7.5230    13.4090 o          1 BZK      -0.838300
@<TRIPOS>BOND
     1     1     2 1   
     2     1    16 1   
     3     1    17 1   
     4     2     3 1   
     5     2     4 1   
     6     2    18 1   
     7     3     6 1   
     8     3    19 1   
     9     3    20 1   
    10     4     5 1   
    11     4    36 1   
    12     6     7 1   
    13     6     8 1   
    14     6    21 1   
    15     7    22 1   
    16     7    23 1   
    17     7    24 1   
    18     8     9 1   
    19     8    25 1   
    20     8    26 1   
    21     9    10 1   
    22     9    11 1   
    23     9    27 1   
    24    10    28 1   
    25    11    12 1   
    26    11    29 1   
    27    11    30 1   
    28    12    13 2   
    29    12    14 1   
    30    14    15 1   
    31    14    31 1   
    32    14    32 1   
    33    15    33 1   
    34    15    34 1   
    35    15    35 1   
@<TRIPOS>SUBSTRUCTURE
     1 BZK         1 TEMP              0 ****  ****    0 ROOT
