@<TRIPOS>MOLECULE
BZK
   36    35     1     0     0
SMALL
bcc


@<TRIPOS>ATOM
      1 N           20.4040     8.5180    12.3410 n8         1 BZK      -0.891800
      2 CA          21.4400     9.0040    13.2440 c3         1 BZK       0.023500
      3 CB          20.8270     9.8870    14.3310 c3         1 BZK      -0.045400
      4 C           22.2400     7.8190    13.8480 c          1 BZK       0.929600
      5 O           22.9250     8.0670    14.8600 o          1 BZK      -0.838300
      6 CG1         20.0050    11.0720    13.8190 c3         1 BZK      -0.057700
      7 CGB         20.8130    11.9630    12.8770 c3         1 BZK      -0.081100
      8 CD          19.4790    11.9340    14.9740 c3         1 BZK      -0.061400
      9 CE          18.6520    11.2180    16.0340 c3         1 BZK       0.160100
     10 OE          17.5470    10.6180    15.3860 oh         1 BZK      -0.588800
     11 CZ          18.1730    12.1960    17.1090 c3         1 BZK      -0.220400
     12 CH          19.2590    12.7410    18.0070 c          1 BZK       0.566100
     13 OH          20.2680    12.1160    18.2480 o          1 BZK      -0.502100
     14 CI          18.9910    14.0970    18.6060 c3         1 BZK      -0.182400
     15 CK          20.0170    14.5640    19.6220 c3         1 BZK      -0.076100
     16 H1          20.2040     9.2140    11.6350 hn         1 BZK       0.324300
     17 H2          20.7700     7.7070    11.8590 hn         1 BZK       0.324300
     18 HA          22.1950     9.6060    12.7090 h1         1 BZK      -0.006300
     19 HB2         20.1920     9.2550    14.9600 hc         1 BZK       0.046700
     20 HB1         21.6270    10.2650    14.9730 hc         1 BZK       0.046700
     21 HG1         19.1460    10.6870    13.2620 hc         1 BZK       0.060700
     22 H4          20.2350    12.8370    12.5720 hc         1 BZK       0.020033
     23 HGB         21.7240    12.3210    13.3640 hc         1 BZK       0.020033
     24 H5          21.1110    11.4400    11.9670 hc         1 BZK       0.020033
     25 HD2         20.3340    12.4030    15.4700 hc         1 BZK       0.030200
     26 HD1         18.8780    12.7540    14.5630 hc         1 BZK       0.030200
     27 HE          19.2700    10.4530    16.5180 h1         1 BZK       0.069700
     28 HOE         17.0870    10.0610    16.0210 ho         1 BZK       0.391000
     29 HZ2         17.6130    13.0200    16.6560 hc         1 BZK       0.053700
     30 HZ1         17.4640    11.6900    17.7780 hc         1 BZK       0.053700
     31 HI1         18.9180    14.8030    17.7710 hc         1 BZK       0.053700
     32 HI2         17.9840    14.0790    19.0380 hc         1 BZK       0.053700
     33 HK2         19.7460    15.5460    20.0080 hc         1 BZK       0.037367
     34 HK1         20.0810    13.8820    20.4690 hc         1 BZK       0.037367
     35 HK3         21.0100    14.6450    19.1810 hc         1 BZK       0.037367
     36 OXT         22.1660     6.7250    13.2510 o          1 BZK      -0.838300
@<TRIPOS>BOND
     1     1     2 1   
     2     1    16 1   
     3     1    17 1   
     4     2     3 1   
     5     2     4 1   
     6     2    18 1   
     7     3     6 1   
     8     3    19 1   
     9     3    20 1   
    10     4     5 1   
    11     4    36 1   
    12     6     7 1   
    13     6     8 1   
    14     6    21 1   
    15     7    22 1   
    16     7    23 1   
    17     7    24 1   
    18     8     9 1   
    19     8    25 1   
    20     8    26 1   
    21     9    10 1   
    22     9    11 1   
    23     9    27 1   
    24    10    28 1   
    25    11    12 1   
    26    11    29 1   
    27    11    30 1   
    28    12    13 2   
    29    12    14 1   
    30    14    15 1   
    31    14    31 1   
    32    14    32 1   
    33    15    33 1   
    34    15    34 1   
    35    15    35 1   
@<TRIPOS>SUBSTRUCTURE
     1 BZK         1 TEMP              0 ****  ****    0 ROOT
