@<TRIPOS>MOLECULE
BZM
   28    29     1     0     0
SMALL
No Charge or Current Charge


@<TRIPOS>ATOM
      1 C8          -1.4260    -0.0070     1.2610 c3         1 BZM       0.214900
      2 O8          -0.6040    -0.0070     0.0820 os         1 BZM      -0.440100
      3 C7          -1.2280    -0.0100    -1.1380 c          1 BZM       0.607700
      4 O7          -2.4460    -0.0130    -1.2720 o          1 BZM      -0.494000
      5 C6          -0.2730    -0.0100    -2.3110 ca         1 BZM      -0.143600
      6 C1          -0.7800    -0.0130    -3.6300 ca         1 BZM      -0.054500
      7 C5           1.1290    -0.0080    -2.1190 ca         1 BZM      -0.054500
      8 C2           0.0940    -0.0130    -4.7320 ca         1 BZM      -0.128500
      9 C4           1.9990    -0.0080    -3.2240 ca         1 BZM      -0.128500
     10 C3           1.4840    -0.0100    -4.5300 ca         1 BZM      -0.081000
     11 C9          -0.5120    -0.0040     2.4790 ca         1 BZM      -0.099300
     12 C14         -0.0850     1.2150     3.0440 ca         1 BZM      -0.085000
     13 C10         -0.0820    -1.2190     3.0490 ca         1 BZM      -0.085000
     14 C13          0.7600     1.2170     4.1690 ca         1 BZM      -0.115000
     15 C11          0.7620    -1.2150     4.1730 ca         1 BZM      -0.115000
     16 C12          1.1830     0.0020     4.7340 ca         1 BZM      -0.098000
     17 H82         -2.0730     0.8800     1.2850 h1         1 BZM       0.056700
     18 H81         -2.0700    -0.8960     1.2880 h1         1 BZM       0.056700
     19 H1          -1.8540    -0.0150    -3.8070 ha         1 BZM       0.133500
     20 H5           1.5550    -0.0060    -1.1180 ha         1 BZM       0.133500
     21 H2          -0.3070    -0.0150    -5.7430 ha         1 BZM       0.118000
     22 H4           3.0750    -0.0060    -3.0660 ha         1 BZM       0.118000
     23 H3           2.1590    -0.0100    -5.3830 ha         1 BZM       0.114000
     24 H14         -0.4060     2.1600     2.6110 ha         1 BZM       0.115000
     25 H10         -0.4010    -2.1660     2.6190 ha         1 BZM       0.115000
     26 H13          1.0860     2.1610     4.6010 ha         1 BZM       0.115000
     27 H11          1.0910    -2.1570     4.6090 ha         1 BZM       0.115000
     28 H12          1.8370     0.0050     5.6040 ha         1 BZM       0.113000
@<TRIPOS>BOND
     1     1     2 1   
     2     1    11 1   
     3     1    17 1   
     4     1    18 1   
     5     2     3 1   
     6     3     4 2   
     7     3     5 1   
     8     5     6 ar  
     9     5     7 ar  
    10     6     8 ar  
    11     6    19 1   
    12     7     9 ar  
    13     7    20 1   
    14     8    10 ar  
    15     8    21 1   
    16     9    10 ar  
    17     9    22 1   
    18    10    23 1   
    19    11    12 ar  
    20    11    13 ar  
    21    12    14 ar  
    22    12    24 1   
    23    13    15 ar  
    24    13    25 1   
    25    14    16 ar  
    26    14    26 1   
    27    15    16 ar  
    28    15    27 1   
    29    16    28 1   
@<TRIPOS>SUBSTRUCTURE
     1 BZM         1 TEMP              0 ****  ****    0 ROOT
