@<TRIPOS>MOLECULE
BZM
   28    29     1     0     0
SMALL
bcc


@<TRIPOS>ATOM
      1 C8          -1.4390    -0.0250     1.2420 c3         1 BZM       0.191700
      2 O8          -0.6080    -0.0290     0.0690 os         1 BZM      -0.416900
      3 C7          -1.2100    -0.0140    -1.1100 c          1 BZM       0.656700
      4 O7          -2.4100    -0.0040    -1.2460 o          1 BZM      -0.543000
      5 C6          -0.2500    -0.0110    -2.2430 ca         1 BZM      -0.143600
      6 C1          -0.7620     0.0020    -3.5390 ca         1 BZM      -0.072500
      7 C5           1.1310    -0.0210    -2.0470 ca         1 BZM      -0.072500
      8 C2           0.0940     0.0060    -4.6280 ca         1 BZM      -0.146500
      9 C4           1.9850    -0.0160    -3.1400 ca         1 BZM      -0.146500
     10 C3           1.4690    -0.0030    -4.4290 ca         1 BZM      -0.099000
     11 C9          -0.5260    -0.0120     2.4290 ca         1 BZM      -0.099300
     12 C14         -0.0880     1.1940     2.9680 ca         1 BZM      -0.103000
     13 C10         -0.0900    -1.2050     2.9960 ca         1 BZM      -0.103000
     14 C13          0.7680     1.2080     4.0600 ca         1 BZM      -0.133000
     15 C11          0.7660    -1.1950     4.0890 ca         1 BZM      -0.133000
     16 C12          1.1970     0.0130     4.6220 ca         1 BZM      -0.116000
     17 H82         -2.0840     0.8560     1.2340 h1         1 BZM       0.056700
     18 H81         -2.0740    -0.9130     1.2460 h1         1 BZM       0.056700
     19 H1          -1.8330     0.0090    -3.6960 ha         1 BZM       0.151500
     20 H5           1.5470    -0.0310    -1.0490 ha         1 BZM       0.151500
     21 H2          -0.3100     0.0170    -5.6320 ha         1 BZM       0.136000
     22 H4           3.0550    -0.0230    -2.9840 ha         1 BZM       0.136000
     23 H3           2.1390     0.0010    -5.2790 ha         1 BZM       0.132000
     24 H14         -0.4230     2.1300     2.5360 ha         1 BZM       0.133000
     25 H10         -0.4260    -2.1500     2.5860 ha         1 BZM       0.133000
     26 H13          1.0950     2.1530     4.4760 ha         1 BZM       0.133000
     27 H11          1.0930    -2.1300     4.5260 ha         1 BZM       0.133000
     28 H12          1.8620     0.0220     5.4760 ha         1 BZM       0.131000
@<TRIPOS>BOND
     1     1     2 1   
     2     1    11 1   
     3     1    17 1   
     4     1    18 1   
     5     2     3 1   
     6     3     4 2   
     7     3     5 1   
     8     5     6 ar  
     9     5     7 ar  
    10     6     8 ar  
    11     6    19 1   
    12     7     9 ar  
    13     7    20 1   
    14     8    10 ar  
    15     8    21 1   
    16     9    10 ar  
    17     9    22 1   
    18    10    23 1   
    19    11    12 ar  
    20    11    13 ar  
    21    12    14 ar  
    22    12    24 1   
    23    13    15 ar  
    24    13    25 1   
    25    14    16 ar  
    26    14    26 1   
    27    15    16 ar  
    28    15    27 1   
    29    16    28 1   
@<TRIPOS>SUBSTRUCTURE
     1 BZM         1 TEMP              0 ****  ****    0 ROOT
