@<TRIPOS>MOLECULE
BZN
   61    63     1     0     0
SMALL
abcg2


@<TRIPOS>ATOM
      1 C2           0.6410     1.3210     1.2360 c5         1 BZN       0.150800
      2 C3           0.2300    -0.0330     0.6500 c5         1 BZN      -0.072700
      3 C4          -1.1610     0.2400     0.0260 c5         1 BZN      -0.071700
      4 C5          -1.3920     1.7390     0.2650 c5         1 BZN       0.158800
      5 C6          -2.2300    -0.6380     0.6380 c3         1 BZN       0.165600
      6 N1          -0.0420     2.2600     0.3670 n7         1 BZN      -0.865400
      7 C15          1.1940    -0.5150    -0.4290 c3         1 BZN       0.230800
      8 N16          2.4960    -0.9090     0.0980 n3         1 BZN      -0.793500
      9 C24          2.5500    -2.0070     1.0570 c3         1 BZN       0.229800
     10 C25          1.9780    -3.3250     0.5370 c3         1 BZN      -0.083700
     11 C27          2.7090    -3.8210    -0.7050 c3         1 BZN      -0.092600
     12 C26          2.0240    -4.3610     1.6550 c3         1 BZN      -0.092600
     13 S17          3.8330    -0.4070    -0.7090 sy         1 BZN       1.187600
     14 O29          4.9810    -1.1100    -0.1530 o          1 BZN      -0.545500
     15 O28          3.6070    -0.4630    -2.1480 o          1 BZN      -0.545500
     16 C18          3.9670     1.3040    -0.2650 ca         1 BZN      -0.277500
     17 C23          4.5450     1.6280     0.9580 ca         1 BZN      -0.009500
     18 C22          4.5930     2.9560     1.3470 ca         1 BZN      -0.131500
     19 C21          4.0630     3.9450     0.5260 ca         1 BZN      -0.062000
     20 C20          3.4920     3.6090    -0.6930 ca         1 BZN      -0.131500
     21 C19          3.4440     2.2820    -1.0980 ca         1 BZN      -0.009500
     22 O7          -3.4720    -0.3200     0.0590 os         1 BZN      -0.454000
     23 C8          -4.5450    -1.0100     0.6460 c3         1 BZN       0.208900
     24 C9          -5.8430    -0.4740     0.1110 ca         1 BZN      -0.087300
     25 C14         -6.8760    -1.3390    -0.2340 ca         1 BZN      -0.093000
     26 C13         -8.0940    -0.8470    -0.6870 ca         1 BZN      -0.113500
     27 C12         -8.2880     0.5210    -0.8090 ca         1 BZN      -0.105000
     28 C11         -7.2580     1.3930    -0.4730 ca         1 BZN      -0.113500
     29 C10         -6.0450     0.9000    -0.0150 ca         1 BZN      -0.093000
     30 H2           0.3070     1.3840     2.2840 h1         1 BZN       0.040200
     31 H2A          1.7200     1.4800     1.2280 h1         1 BZN       0.040200
     32 H3           0.1500    -0.7850     1.4400 hc         1 BZN       0.055700
     33 H4          -1.1230     0.0460    -1.0520 hc         1 BZN       0.074700
     34 H5          -1.9440     2.2170    -0.5460 h1         1 BZN       0.041700
     35 H5A         -1.9770     1.8780     1.1890 h1         1 BZN       0.041700
     36 H6          -1.9880    -1.6990     0.4790 h1         1 BZN       0.022200
     37 H6A         -2.2590    -0.4770     1.7270 h1         1 BZN       0.022200
     38 HN1         -0.0200     3.2030     0.7300 hn         1 BZN       0.416000
     39 H15          0.7480    -1.3510    -0.9790 h1         1 BZN       0.059200
     40 H15A         1.3180     0.2920    -1.1520 h1         1 BZN       0.059200
     41 H24          3.5830    -2.1530     1.3690 h1         1 BZN       0.059700
     42 H24A         2.0050    -1.7000     1.9540 h1         1 BZN       0.059700
     43 H25          0.9250    -3.1710     0.2760 hc         1 BZN       0.045700
     44 H27          3.7640    -4.0040    -0.4930 hc         1 BZN       0.038367
     45 H27A         2.2730    -4.7570    -1.0560 hc         1 BZN       0.038367
     46 H27B         2.6540    -3.1090    -1.5300 hc         1 BZN       0.038367
     47 H26          1.4880    -4.0180     2.5420 hc         1 BZN       0.038367
     48 H26A         1.5670    -5.2980     1.3360 hc         1 BZN       0.038367
     49 H26B         3.0530    -4.5780     1.9510 hc         1 BZN       0.038367
     50 H23          4.9540     0.8600     1.6010 ha         1 BZN       0.135000
     51 H22          5.0440     3.2200     2.2940 ha         1 BZN       0.118000
     52 H21          4.1000     4.9800     0.8380 ha         1 BZN       0.114000
     53 H20          3.0840     4.3780    -1.3340 ha         1 BZN       0.118000
     54 H19          3.0040     2.0220    -2.0500 ha         1 BZN       0.135000
     55 H8          -4.4760    -2.0900     0.4540 h1         1 BZN       0.028200
     56 H8A         -4.5230    -0.8880     1.7400 h1         1 BZN       0.028200
     57 H14         -6.7280    -2.4100    -0.1510 ha         1 BZN       0.115000
     58 H13         -8.8870    -1.5350    -0.9510 ha         1 BZN       0.112500
     59 H12         -9.2330     0.9080    -1.1670 ha         1 BZN       0.112000
     60 H11         -7.4030     2.4620    -0.5660 ha         1 BZN       0.112500
     61 H10         -5.2520     1.5900     0.2450 ha         1 BZN       0.115000
@<TRIPOS>BOND
     1     1     2 1   
     2     1     6 1   
     3     1    30 1   
     4     1    31 1   
     5     2     3 1   
     6     2     7 1   
     7     2    32 1   
     8     3     4 1   
     9     3     5 1   
    10     3    33 1   
    11     4     6 1   
    12     4    34 1   
    13     4    35 1   
    14     5    22 1   
    15     5    36 1   
    16     5    37 1   
    17     6    38 1   
    18     7     8 1   
    19     7    39 1   
    20     7    40 1   
    21     8     9 1   
    22     8    13 1   
    23     9    10 1   
    24     9    41 1   
    25     9    42 1   
    26    10    11 1   
    27    10    12 1   
    28    10    43 1   
    29    11    44 1   
    30    11    45 1   
    31    11    46 1   
    32    12    47 1   
    33    12    48 1   
    34    12    49 1   
    35    13    14 2   
    36    13    15 2   
    37    13    16 1   
    38    16    17 ar  
    39    16    21 ar  
    40    17    18 ar  
    41    17    50 1   
    42    18    19 ar  
    43    18    51 1   
    44    19    20 ar  
    45    19    52 1   
    46    20    21 ar  
    47    20    53 1   
    48    21    54 1   
    49    22    23 1   
    50    23    24 1   
    51    23    55 1   
    52    23    56 1   
    53    24    25 ar  
    54    24    29 ar  
    55    25    26 ar  
    56    25    57 1   
    57    26    27 ar  
    58    26    58 1   
    59    27    28 ar  
    60    27    59 1   
    61    28    29 ar  
    62    28    60 1   
    63    29    61 1   
@<TRIPOS>SUBSTRUCTURE
     1 BZN         1 TEMP              0 ****  ****    0 ROOT
