@<TRIPOS>MOLECULE
BZN
   61    63     1     0     0
SMALL
No Charge or Current Charge


@<TRIPOS>ATOM
      1 C2           0.7910     1.3190     2.0290 c5         1 BZN       0.150800
      2 C3           0.3230     0.0090     1.3540 c5         1 BZN      -0.072700
      3 C4          -1.0810     0.4790     0.8900 c5         1 BZN      -0.071700
      4 C5          -1.5830     1.1850     2.1810 c5         1 BZN       0.158800
      5 C6          -2.0060    -0.6440     0.3700 c3         1 BZN       0.165600
      6 N1          -0.3710     1.7350     2.8580 n7         1 BZN      -0.865400
      7 C15          1.2530    -0.4860     0.2200 c3         1 BZN       0.230800
      8 N16          2.6290    -0.8080     0.6650 n3         1 BZN      -0.793500
      9 C24          2.7890    -1.8800     1.6850 c3         1 BZN       0.229800
     10 C25          2.0440    -3.2320     1.4560 c3         1 BZN      -0.083700
     11 C27          2.4490    -3.9710     0.1600 c3         1 BZN      -0.092600
     12 C26          2.2230    -4.1560     2.6830 c3         1 BZN      -0.092600
     13 S17          3.8600    -0.6390    -0.5030 sy         1 BZN       1.187600
     14 O29          5.1260    -0.7010     0.2370 o          1 BZN      -0.545500
     15 O28          3.5650    -1.5480    -1.6150 o          1 BZN      -0.545500
     16 C18          3.6490     1.0750    -1.0130 ca         1 BZN      -0.277500
     17 C23          3.8730     2.1080    -0.0820 ca         1 BZN      -0.009500
     18 C22          3.6880     3.4490    -0.4620 ca         1 BZN      -0.131500
     19 C21          3.2790     3.7620    -1.7700 ca         1 BZN      -0.062000
     20 C20          3.0530     2.7310    -2.6990 ca         1 BZN      -0.131500
     21 C19          3.2360     1.3880    -2.3250 ca         1 BZN      -0.009500
     22 O7          -3.2750    -0.0570     0.0460 os         1 BZN      -0.454000
     23 C8          -4.2510    -0.9870    -0.4480 c3         1 BZN       0.208900
     24 C9          -5.5390    -0.2290    -0.7420 ca         1 BZN      -0.087300
     25 C14         -5.7730     0.3060    -2.0240 ca         1 BZN      -0.093000
     26 C13         -6.9630     1.0040    -2.2950 ca         1 BZN      -0.113500
     27 C12         -7.9250     1.1730    -1.2850 ca         1 BZN      -0.105000
     28 C11         -7.6960     0.6440    -0.0030 ca         1 BZN      -0.113500
     29 C10         -6.5060    -0.0540     0.2680 ca         1 BZN      -0.093000
     30 H2           1.6960     1.1800     2.6360 h1         1 BZN       0.040200
     31 H2A          1.0120     2.0860     1.2720 h1         1 BZN       0.040200
     32 H3           0.2340    -0.7980     2.0910 hc         1 BZN       0.055700
     33 H4          -0.9900     1.2090     0.0760 hc         1 BZN       0.074700
     34 H5          -2.3080     1.9770     1.9480 h1         1 BZN       0.041700
     35 H5A         -2.0840     0.4680     2.8470 h1         1 BZN       0.041700
     36 H6          -1.5570    -1.1080    -0.5180 h1         1 BZN       0.022200
     37 H6A         -2.1200    -1.4140     1.1460 h1         1 BZN       0.022200
     38 HN1         -0.2930     1.2790     3.7760 hn         1 BZN       0.416000
     39 H15          0.7990    -1.3610    -0.2640 h1         1 BZN       0.059200
     40 H15A         1.2680     0.3060    -0.5390 h1         1 BZN       0.059200
     41 H24          3.8520    -2.1000     1.8520 h1         1 BZN       0.059700
     42 H24A         2.4300    -1.4820     2.6440 h1         1 BZN       0.059700
     43 H25          0.9700    -3.0220     1.3860 hc         1 BZN       0.045700
     44 H27          3.5380    -4.0760     0.0890 hc         1 BZN       0.038367
     45 H27A         2.0070    -4.9740     0.1300 hc         1 BZN       0.038367
     46 H27B         2.0860    -3.4360    -0.7230 hc         1 BZN       0.038367
     47 H26          1.8800    -3.6590     3.5980 hc         1 BZN       0.038367
     48 H26A         1.6410    -5.0790     2.5650 hc         1 BZN       0.038367
     49 H26B         3.2770    -4.4310     2.8160 hc         1 BZN       0.038367
     50 H23          4.1820     1.8740     0.9360 ha         1 BZN       0.135000
     51 H22          3.8590     4.2450     0.2580 ha         1 BZN       0.118000
     52 H21          3.1350     4.8000    -2.0620 ha         1 BZN       0.114000
     53 H20          2.7340     2.9730    -3.7100 ha         1 BZN       0.118000
     54 H19          3.0520     0.6010    -3.0540 ha         1 BZN       0.135000
     55 H8          -3.8930    -1.4730    -1.3660 h1         1 BZN       0.028200
     56 H8A         -4.4490    -1.7710     0.2950 h1         1 BZN       0.028200
     57 H14         -5.0320     0.1810    -2.8110 ha         1 BZN       0.115000
     58 H13         -7.1390     1.4140    -3.2870 ha         1 BZN       0.112500
     59 H12         -8.8460     1.7140    -1.4950 ha         1 BZN       0.112000
     60 H11         -8.4400     0.7760     0.7800 ha         1 BZN       0.112500
     61 H10         -6.3350    -0.4590     1.2630 ha         1 BZN       0.115000
@<TRIPOS>BOND
     1     1     2 1   
     2     1     6 1   
     3     1    30 1   
     4     1    31 1   
     5     2     3 1   
     6     2     7 1   
     7     2    32 1   
     8     3     4 1   
     9     3     5 1   
    10     3    33 1   
    11     4     6 1   
    12     4    34 1   
    13     4    35 1   
    14     5    22 1   
    15     5    36 1   
    16     5    37 1   
    17     6    38 1   
    18     7     8 1   
    19     7    39 1   
    20     7    40 1   
    21     8     9 1   
    22     8    13 1   
    23     9    10 1   
    24     9    41 1   
    25     9    42 1   
    26    10    11 1   
    27    10    12 1   
    28    10    43 1   
    29    11    44 1   
    30    11    45 1   
    31    11    46 1   
    32    12    47 1   
    33    12    48 1   
    34    12    49 1   
    35    13    14 2   
    36    13    15 2   
    37    13    16 1   
    38    16    17 ar  
    39    16    21 ar  
    40    17    18 ar  
    41    17    50 1   
    42    18    19 ar  
    43    18    51 1   
    44    19    20 ar  
    45    19    52 1   
    46    20    21 ar  
    47    20    53 1   
    48    21    54 1   
    49    22    23 1   
    50    23    24 1   
    51    23    55 1   
    52    23    56 1   
    53    24    25 ar  
    54    24    29 ar  
    55    25    26 ar  
    56    25    57 1   
    57    26    27 ar  
    58    26    58 1   
    59    27    28 ar  
    60    27    59 1   
    61    28    29 ar  
    62    28    60 1   
    63    29    61 1   
@<TRIPOS>SUBSTRUCTURE
     1 BZN         1 TEMP              0 ****  ****    0 ROOT
