@<TRIPOS>MOLECULE
BZO
   18    18     1     0     0
SMALL
bcc


@<TRIPOS>ATOM
      1 C1          -3.0450    -0.0470    -0.0880 c          1 BZO       0.645900
      2 O1          -3.8490    -0.0530     0.8010 o          1 BZO      -0.486000
      3 O2          -1.7460     0.0080     0.1540 os         1 BZO      -0.423900
      4 C2          -0.8730     0.0230    -0.9940 c3         1 BZO       0.198700
      5 C3           0.5360     0.0040    -0.4930 ca         1 BZO      -0.102300
      6 C4           1.1710    -1.2040    -0.2180 ca         1 BZO      -0.098500
      7 C5           2.4670    -1.2210     0.2780 ca         1 BZO      -0.132000
      8 C6           3.1390    -0.0270     0.5060 ca         1 BZO      -0.112000
      9 C7           2.5130     1.1820     0.2350 ca         1 BZO      -0.132000
     10 C8           1.2160     1.1960    -0.2610 ca         1 BZO      -0.098500
     11 H11         -3.3150    -0.0870    -1.1540 h5         1 BZO      -0.010800
     12 H21         -1.0760    -0.8500    -1.6190 h1         1 BZO       0.042700
     13 H22         -1.0650     0.9200    -1.5850 h1         1 BZO       0.042700
     14 H4           0.6520    -2.1380    -0.3990 ha         1 BZO       0.132000
     15 H5           2.9520    -2.1660     0.4840 ha         1 BZO       0.134000
     16 H6           4.1510    -0.0400     0.8910 ha         1 BZO       0.133000
     17 H7           3.0340     2.1150     0.4070 ha         1 BZO       0.134000
     18 H8           0.7330     2.1420    -0.4750 ha         1 BZO       0.132000
@<TRIPOS>BOND
     1     1     2 2   
     2     1     3 1   
     3     1    11 1   
     4     3     4 1   
     5     4     5 1   
     6     4    12 1   
     7     4    13 1   
     8     5     6 ar  
     9     5    10 ar  
    10     6     7 ar  
    11     6    14 1   
    12     7     8 ar  
    13     7    15 1   
    14     8     9 ar  
    15     8    16 1   
    16     9    10 ar  
    17     9    17 1   
    18    10    18 1   
@<TRIPOS>SUBSTRUCTURE
     1 BZO         1 TEMP              0 ****  ****    0 ROOT
