@<TRIPOS>MOLECULE
BZP
   18    18     1     0     0
SMALL
No Charge or Current Charge


@<TRIPOS>ATOM
      1 N1          -0.0170    -0.0990     0.4220 n          1 BZP      -0.457800
      2 C1          -0.0660    -0.2920     1.8130 c          1 BZP       0.739000
      3 O1          -1.1570    -0.3580     2.3540 o          1 BZP      -0.739500
      4 O2           0.9840    -0.3730     2.4280 o          1 BZP      -0.739500
      5 C2          -1.2610    -0.2100    -0.4090 c6         1 BZP       0.108000
      6 C3          -1.1470     0.3210    -1.8700 c6         1 BZP       0.142800
      7 N4           0.0850    -0.1310    -2.5500 n7         1 BZP      -0.861400
      8 C5           1.2730     0.3040    -1.7870 c6         1 BZP       0.142800
      9 C6           1.2790    -0.2280    -0.3220 c6         1 BZP       0.108000
     10 H21         -1.5460    -1.2710    -0.4470 h1         1 BZP       0.032450
     11 H22         -2.0840     0.3260     0.0840 h1         1 BZP       0.032450
     12 H31         -2.0250    -0.0030    -2.4470 h1         1 BZP       0.013200
     13 H32         -1.1560     1.4210    -1.8510 h1         1 BZP       0.013200
     14 HN4          0.1190     0.2920    -3.4850 hn         1 BZP       0.376000
     15 H51          2.1840    -0.0320    -2.3040 h1         1 BZP       0.013200
     16 H52          1.2960     1.4040    -1.7670 h1         1 BZP       0.013200
     17 H61          2.0740     0.2970     0.2260 h1         1 BZP       0.032450
     18 H62          1.5520    -1.2930    -0.3420 h1         1 BZP       0.032450
@<TRIPOS>BOND
     1     1     2 1   
     2     1     5 1   
     3     1     9 1   
     4     2     3 1   
     5     2     4 1   
     6     5     6 1   
     7     5    10 1   
     8     5    11 1   
     9     6     7 1   
    10     6    12 1   
    11     6    13 1   
    12     7     8 1   
    13     7    14 1   
    14     8     9 1   
    15     8    15 1   
    16     8    16 1   
    17     9    17 1   
    18     9    18 1   
@<TRIPOS>SUBSTRUCTURE
     1 BZP         1 TEMP              0 ****  ****    0 ROOT
