@<TRIPOS>MOLECULE
BZP
   18    18     1     0     0
SMALL
abcg2


@<TRIPOS>ATOM
      1 N1          -0.0130    -0.0190     0.3280 n          1 BZP      -0.457800
      2 C1          -0.0620    -0.0880     1.7390 c          1 BZP       0.739000
      3 O1          -1.1950    -0.0880     2.2640 o          1 BZP      -0.739500
      4 O2           1.0330    -0.1160     2.3400 o          1 BZP      -0.739500
      5 C2          -1.1980    -0.3200    -0.4420 c6         1 BZP       0.108000
      6 C3          -1.1300     0.3380    -1.8100 c6         1 BZP       0.142800
      7 N4           0.0830    -0.0730    -2.4940 n7         1 BZP      -0.861400
      8 C5           1.2510     0.3220    -1.7280 c6         1 BZP       0.142800
      9 C6           1.2180    -0.3380    -0.3600 c6         1 BZP       0.108000
     10 H21         -1.3250    -1.4060    -0.5810 h1         1 BZP       0.032450
     11 H22         -2.0750     0.0410     0.0890 h1         1 BZP       0.032450
     12 H31         -1.9970     0.0320    -2.3990 h1         1 BZP       0.013200
     13 H32         -1.1910     1.4310    -1.6790 h1         1 BZP       0.013200
     14 HN4          0.1180     0.3520    -3.4110 hn         1 BZP       0.376000
     15 H51          2.1530     0.0060    -2.2570 h1         1 BZP       0.013200
     16 H52          1.3170     1.4140    -1.5910 h1         1 BZP       0.013200
     17 H61          2.0620     0.0110     0.2290 h1         1 BZP       0.032450
     18 H62          1.3380    -1.4250    -0.4910 h1         1 BZP       0.032450
@<TRIPOS>BOND
     1     1     2 1   
     2     1     5 1   
     3     1     9 1   
     4     2     3 1   
     5     2     4 1   
     6     5     6 1   
     7     5    10 1   
     8     5    11 1   
     9     6     7 1   
    10     6    12 1   
    11     6    13 1   
    12     7     8 1   
    13     7    14 1   
    14     8     9 1   
    15     8    15 1   
    16     8    16 1   
    17     9    17 1   
    18     9    18 1   
@<TRIPOS>SUBSTRUCTURE
     1 BZP         1 TEMP              0 ****  ****    0 ROOT
