@<TRIPOS>MOLECULE
BZQ
   24    25     1     0     0
SMALL
abcg2


@<TRIPOS>ATOM
      1 C1           1.4450    -0.8320     2.6380 ca         1 BZQ      -0.123500
      2 C2           0.9100    -0.1900     3.7460 ca         1 BZQ      -0.086500
      3 C3          -0.2580     0.5540     3.6220 ca         1 BZQ      -0.123500
      4 C4          -0.8930     0.6480     2.3950 ca         1 BZQ      -0.066000
      5 C5          -0.3480     0.0250     1.2710 ca         1 BZQ      -0.169100
      6 C6           0.8250    -0.7170     1.4020 ca         1 BZQ      -0.066000
      7 C7          -1.0780     0.1060    -0.0220 c          1 BZQ       0.593300
      8 C8          -0.8970    -0.4390    -2.4380 ca         1 BZQ      -0.066000
      9 C9          -0.3070     0.0990    -1.2930 ca         1 BZQ      -0.169100
     10 C10          0.9570     0.6810    -1.3840 ca         1 BZQ      -0.066000
     11 C11          1.6210     0.7220    -2.6020 ca         1 BZQ      -0.123500
     12 C12          1.0370     0.1660    -3.7310 ca         1 BZQ      -0.086500
     13 C13         -0.2220    -0.4190    -3.6470 ca         1 BZQ      -0.123500
     14 O           -2.2910     0.1810    -0.0380 o          1 BZQ      -0.518100
     15 H1           2.3470    -1.4220     2.7330 ha         1 BZQ       0.116750
     16 H2           1.4000    -0.2720     4.7070 ha         1 BZQ       0.114000
     17 H3          -0.6750     1.0570     4.4850 ha         1 BZQ       0.116750
     18 H4          -1.8050     1.2240     2.3030 ha         1 BZQ       0.125000
     19 H6           1.2460    -1.2290     0.5460 ha         1 BZQ       0.125000
     20 H10          1.4180     1.1250    -0.5110 ha         1 BZQ       0.125000
     21 H11          2.5940     1.1910    -2.6670 ha         1 BZQ       0.116750
     22 H12          1.5600     0.1910    -4.6780 ha         1 BZQ       0.114000
     23 H13         -0.6780    -0.8530    -4.5270 ha         1 BZQ       0.116750
     24 H8          -1.8800    -0.8880    -2.3770 ha         1 BZQ       0.125000
@<TRIPOS>BOND
     1     1     2 ar  
     2     1     6 ar  
     3     1    15 1   
     4     2     3 ar  
     5     2    16 1   
     6     3     4 ar  
     7     3    17 1   
     8     4     5 ar  
     9     4    18 1   
    10     5     6 ar  
    11     5     7 1   
    12     6    19 1   
    13     7     9 1   
    14     7    14 2   
    15     8     9 ar  
    16     8    13 ar  
    17     8    24 1   
    18     9    10 ar  
    19    10    11 ar  
    20    10    20 1   
    21    11    12 ar  
    22    11    21 1   
    23    12    13 ar  
    24    12    22 1   
    25    13    23 1   
@<TRIPOS>SUBSTRUCTURE
     1 BZQ         1 TEMP              0 ****  ****    0 ROOT
