@<TRIPOS>MOLECULE
BZQ
   24    25     1     0     0
SMALL
No Charge or Current Charge


@<TRIPOS>ATOM
      1 C1           1.4770    -0.8100     2.6380 ca         1 BZQ      -0.123500
      2 C2           0.9490    -0.1780     3.7750 ca         1 BZQ      -0.086500
      3 C3          -0.2520     0.5430     3.6790 ca         1 BZQ      -0.123500
      4 C4          -0.9220     0.6380     2.4470 ca         1 BZQ      -0.066000
      5 C5          -0.3910     0.0210     1.2930 ca         1 BZQ      -0.169100
      6 C6           0.8100    -0.7170     1.4040 ca         1 BZQ      -0.066000
      7 C7          -1.1320     0.1190    -0.0220 c          1 BZQ       0.593300
      8 C8          -0.9220    -0.4260    -2.4860 ca         1 BZQ      -0.066000
      9 C9          -0.3480     0.1190    -1.3160 ca         1 BZQ      -0.169100
     10 C10          0.9420     0.6950    -1.3920 ca         1 BZQ      -0.066000
     11 C11          1.6490     0.6980    -2.6060 ca         1 BZQ      -0.123500
     12 C12          1.0760     0.1380    -3.7590 ca         1 BZQ      -0.086500
     13 C13         -0.2110    -0.4210    -3.6980 ca         1 BZQ      -0.123500
     14 O           -2.3560     0.1990    -0.0400 o          1 BZQ      -0.518100
     15 H1           2.4020    -1.3780     2.7130 ha         1 BZQ       0.116750
     16 H2           1.4660    -0.2510     4.7300 ha         1 BZQ       0.114000
     17 H3          -0.6660     1.0280     4.5610 ha         1 BZQ       0.116750
     18 H4          -1.8530     1.2000     2.3890 ha         1 BZQ       0.125000
     19 H6           1.2250    -1.2320     0.5400 ha         1 BZQ       0.125000
     20 H10          1.3950     1.1530    -0.5150 ha         1 BZQ       0.125000
     21 H11          2.6420     1.1410    -2.6540 ha         1 BZQ       0.116750
     22 H12          1.6250     0.1420    -4.6990 ha         1 BZQ       0.114000
     23 H13         -0.6590    -0.8500    -4.5920 ha         1 BZQ       0.116750
     24 H8          -1.9190    -0.8630    -2.4550 ha         1 BZQ       0.125000
@<TRIPOS>BOND
     1     1     2 ar  
     2     1     6 ar  
     3     1    15 1   
     4     2     3 ar  
     5     2    16 1   
     6     3     4 ar  
     7     3    17 1   
     8     4     5 ar  
     9     4    18 1   
    10     5     6 ar  
    11     5     7 1   
    12     6    19 1   
    13     7     9 1   
    14     7    14 2   
    15     8     9 ar  
    16     8    13 ar  
    17     8    24 1   
    18     9    10 ar  
    19    10    11 ar  
    20    10    20 1   
    21    11    12 ar  
    22    11    21 1   
    23    12    13 ar  
    24    12    22 1   
    25    13    23 1   
@<TRIPOS>SUBSTRUCTURE
     1 BZQ         1 TEMP              0 ****  ****    0 ROOT
