@<TRIPOS>MOLECULE
BZR
   37    40     1     0     0
SMALL
abcg2


@<TRIPOS>ATOM
      1 C4C          1.3700     1.5810    -0.2340 c6         1 BZR      -0.073100
      2 C9C          2.8460     1.7510     0.0980 c6         1 BZR       0.178300
      3 O3           3.0920     1.6870     1.4860 oh         1 BZR      -0.707000
      4 C8B          3.6250     0.6380    -0.5700 c6         1 BZR       0.176300
      5 O2           5.0020     0.8790    -0.4350 oh         1 BZR      -0.648000
      6 C3B          3.2280    -0.7060     0.0260 c6         1 BZR       0.181600
      7 O1           3.8400    -1.7190    -0.7530 oh         1 BZR      -0.728000
      8 C3A          1.7250    -0.8820     0.0590 ca         1 BZR      -0.079300
      9 C2A          1.2220    -2.2040     0.2420 ca         1 BZR      -0.089000
     10 C4A          0.8630     0.1750    -0.0520 ca         1 BZR      -0.052300
     11 C1A         -0.1090    -2.4530     0.3050 ca         1 BZR      -0.101000
     12 C5A         -1.4850     0.9680    -0.1850 ca         1 BZR      -0.094000
     13 C4B         -0.5570    -0.0590    -0.0250 ca         1 BZR      -0.023000
     14 C6A         -3.8060     1.7830    -0.3170 ca         1 BZR      -0.100000
     15 C7A         -5.1430     1.5280    -0.2770 ca         1 BZR      -0.105000
     16 C8A         -5.6200     0.2050    -0.0700 ca         1 BZR      -0.107000
     17 C5B         -2.8600     0.7310    -0.1530 ca         1 BZR      -0.032000
     18 C9B         -3.3400    -0.5990     0.0520 ca         1 BZR      -0.034000
     19 C11         -1.0470    -1.3910     0.1650 ca         1 BZR      -0.031000
     20 C9A         -4.7450    -0.8260     0.0880 ca         1 BZR      -0.097000
     21 C10         -2.4160    -1.6300     0.2040 ca         1 BZR      -0.085000
     22 H4C1         0.7950     2.2800     0.3800 hc         1 BZR       0.057200
     23 H4C2         1.2010     1.8980    -1.2680 hc         1 BZR       0.057200
     24 H9C          3.1790     2.7140    -0.3120 h1         1 BZR       0.049700
     25 H3           2.6030     2.3970     1.9120 ho         1 BZR       0.502000
     26 H8B          3.3310     0.6350    -1.6310 h1         1 BZR       0.049700
     27 HO2          5.4700     0.1450    -0.8480 ho         1 BZR       0.453000
     28 H3B          3.5990    -0.7540     1.0570 h1         1 BZR       0.071700
     29 H1           4.2710    -2.3480    -0.1700 ho         1 BZR       0.507000
     30 H2A          1.9190    -3.0260     0.3400 ha         1 BZR       0.112000
     31 H1A         -0.4740    -3.4610     0.4560 ha         1 BZR       0.115000
     32 H5A         -1.1520     1.9850    -0.3490 ha         1 BZR       0.111000
     33 H6A         -3.4450     2.7920    -0.4750 ha         1 BZR       0.112000
     34 H7A         -5.8540     2.3340    -0.4020 ha         1 BZR       0.113000
     35 H8A         -6.6860     0.0240    -0.0410 ha         1 BZR       0.113000
     36 H9A         -5.1070    -1.8350     0.2460 ha         1 BZR       0.113000
     37 H10         -2.7720    -2.6430     0.3540 ha         1 BZR       0.115000
@<TRIPOS>BOND
     1     1     2 1   
     2     1    10 1   
     3     1    22 1   
     4     1    23 1   
     5     2     3 1   
     6     2     4 1   
     7     2    24 1   
     8     3    25 1   
     9     4     5 1   
    10     4     6 1   
    11     4    26 1   
    12     5    27 1   
    13     6     7 1   
    14     6     8 1   
    15     6    28 1   
    16     7    29 1   
    17     8     9 ar  
    18     8    10 ar  
    19     9    11 ar  
    20     9    30 1   
    21    10    13 ar  
    22    11    19 ar  
    23    11    31 1   
    24    12    13 ar  
    25    12    17 ar  
    26    12    32 1   
    27    13    19 ar  
    28    14    15 ar  
    29    14    17 ar  
    30    14    33 1   
    31    15    16 ar  
    32    15    34 1   
    33    16    20 ar  
    34    16    35 1   
    35    17    18 ar  
    36    18    20 ar  
    37    18    21 ar  
    38    19    21 ar  
    39    20    36 1   
    40    21    37 1   
@<TRIPOS>SUBSTRUCTURE
     1 BZR         1 TEMP              0 ****  ****    0 ROOT
