@<TRIPOS>MOLECULE
BZR
   37    40     1     0     0
SMALL
No Charge or Current Charge


@<TRIPOS>ATOM
      1 C4C          1.3810     1.6290    -0.1790 c6         1 BZR      -0.073100
      2 C9C          2.8910     1.8120     0.1040 c6         1 BZR       0.178300
      3 O3           3.1310     1.8480     1.5280 oh         1 BZR      -0.707000
      4 C8B          3.6810     0.6720    -0.5990 c6         1 BZR       0.176300
      5 O2           5.1090     0.8610    -0.5200 oh         1 BZR      -0.648000
      6 C3B          3.2830    -0.7050     0.0050 c6         1 BZR       0.181600
      7 O1           3.9410    -1.7490    -0.7450 oh         1 BZR      -0.728000
      8 C3A          1.7520    -0.9140     0.0540 ca         1 BZR      -0.079300
      9 C2A          1.2430    -2.2160     0.2440 ca         1 BZR      -0.089000
     10 C4A          0.8460     0.1830    -0.0410 ca         1 BZR      -0.052300
     11 C1A         -0.1360    -2.4490     0.2930 ca         1 BZR      -0.101000
     12 C5A         -1.5060     0.9790    -0.1770 ca         1 BZR      -0.094000
     13 C4B         -0.5580    -0.0640    -0.0220 ca         1 BZR      -0.023000
     14 C6A         -3.8150     1.7610    -0.3000 ca         1 BZR      -0.100000
     15 C7A         -5.1950     1.4920    -0.2690 ca         1 BZR      -0.105000
     16 C8A         -5.6520     0.1760    -0.0840 ca         1 BZR      -0.107000
     17 C5B         -2.8870     0.7120    -0.1460 ca         1 BZR      -0.032000
     18 C9B         -3.3470    -0.6070     0.0370 ca         1 BZR      -0.034000
     19 C11         -1.0370    -1.3850     0.1510 ca         1 BZR      -0.031000
     20 C9A         -4.7290    -0.8730     0.0680 ca         1 BZR      -0.097000
     21 C10         -2.4190    -1.6500     0.1840 ca         1 BZR      -0.085000
     22 H4C1         0.8270     2.3050     0.4860 hc         1 BZR       0.057200
     23 H4C2         1.1760     1.9750    -1.2020 hc         1 BZR       0.057200
     24 H9C          3.2050     2.7680    -0.3430 h1         1 BZR       0.049700
     25 H3           2.7910     2.7130     1.8520 ho         1 BZR       0.502000
     26 H8B          3.3790     0.6690    -1.6570 h1         1 BZR       0.049700
     27 HO2          5.4840    -0.0230    -0.7340 ho         1 BZR       0.453000
     28 H3B          3.6380    -0.7220     1.0480 h1         1 BZR       0.071700
     29 H1           3.8250    -2.5840    -0.2370 ho         1 BZR       0.507000
     30 H2A          1.9140    -3.0640     0.3580 ha         1 BZR       0.112000
     31 H1A         -0.5020    -3.4630     0.4350 ha         1 BZR       0.115000
     32 H5A         -1.1910     2.0060    -0.3320 ha         1 BZR       0.111000
     33 H6A         -3.4710     2.7830    -0.4430 ha         1 BZR       0.112000
     34 H7A         -5.9090     2.3040    -0.3870 ha         1 BZR       0.113000
     35 H8A         -6.7190    -0.0310    -0.0600 ha         1 BZR       0.113000
     36 H9A         -5.0900    -1.8900     0.2090 ha         1 BZR       0.113000
     37 H10         -2.7720    -2.6700     0.3210 ha         1 BZR       0.115000
@<TRIPOS>BOND
     1     1     2 1   
     2     1    10 1   
     3     1    22 1   
     4     1    23 1   
     5     2     3 1   
     6     2     4 1   
     7     2    24 1   
     8     3    25 1   
     9     4     5 1   
    10     4     6 1   
    11     4    26 1   
    12     5    27 1   
    13     6     7 1   
    14     6     8 1   
    15     6    28 1   
    16     7    29 1   
    17     8     9 ar  
    18     8    10 ar  
    19     9    11 ar  
    20     9    30 1   
    21    10    13 ar  
    22    11    19 ar  
    23    11    31 1   
    24    12    13 ar  
    25    12    17 ar  
    26    12    32 1   
    27    13    19 ar  
    28    14    15 ar  
    29    14    17 ar  
    30    14    33 1   
    31    15    16 ar  
    32    15    34 1   
    33    16    20 ar  
    34    16    35 1   
    35    17    18 ar  
    36    18    20 ar  
    37    18    21 ar  
    38    19    21 ar  
    39    20    36 1   
    40    21    37 1   
@<TRIPOS>SUBSTRUCTURE
     1 BZR         1 TEMP              0 ****  ****    0 ROOT
