@<TRIPOS>MOLECULE
BZS
   25    25     1     0     0
SMALL
No Charge or Current Charge


@<TRIPOS>ATOM
      1 C1           0.6430     0.4360     3.3090 c          1 BZS       0.726000
      2 C2           0.9700    -0.6030     2.2100 c3         1 BZS      -0.165400
      3 CA           0.4100    -0.1460     0.8250 c3         1 BZS      -0.155700
      4 C           -1.1420    -0.0620     0.8200 c          1 BZS       0.742000
      5 CB           0.9300    -1.0430    -0.3310 c3         1 BZS      -0.029100
      6 CG           0.5510    -0.5170    -1.7120 ca         1 BZS      -0.007300
      7 CD1          1.2400     0.5800    -2.2660 ca         1 BZS      -0.097500
      8 CD2         -0.4850    -1.1250    -2.4490 ca         1 BZS      -0.097500
      9 CE1          0.8970     1.0630    -3.5410 ca         1 BZS      -0.127000
     10 CE2         -0.8280    -0.6410    -3.7230 ca         1 BZS      -0.127000
     11 CZ          -0.1370     0.4530    -4.2700 ca         1 BZS      -0.154000
     12 O1           1.4150     1.3710     3.4690 o          1 BZS      -0.761000
     13 O2          -0.3780     0.2920     3.9640 o          1 BZS      -0.761000
     14 O3          -1.7930    -1.0890     0.9590 o          1 BZS      -0.759000
     15 O4          -1.6580     1.0330     0.6440 o          1 BZS      -0.759000
     16 H21          2.0570    -0.6660     2.0760 hc         1 BZS      -0.004800
     17 H22          0.5050    -1.5720     2.4320 hc         1 BZS      -0.004800
     18 HA           0.7960     0.8660     0.6480 hc         1 BZS       0.038700
     19 HB1          2.0230    -1.1110    -0.2670 hc         1 BZS       0.019200
     20 HB2          0.5590    -2.0660    -0.1950 hc         1 BZS       0.019200
     21 HD1          2.0420     1.0560    -1.7080 ha         1 BZS       0.116500
     22 HD2         -1.0260    -1.9720    -2.0320 ha         1 BZS       0.116500
     23 HE1          1.4320     1.9100    -3.9630 ha         1 BZS       0.079500
     24 HE2         -1.6290    -1.1150    -4.2860 ha         1 BZS       0.079500
     25 HZ          -0.4030     0.8270    -5.2560 ha         1 BZS       0.073000
@<TRIPOS>BOND
     1     1     2 1   
     2     1    12 1   
     3     1    13 1   
     4     2     3 1   
     5     2    16 1   
     6     2    17 1   
     7     3     4 1   
     8     3     5 1   
     9     3    18 1   
    10     4    14 1   
    11     4    15 1   
    12     5     6 1   
    13     5    19 1   
    14     5    20 1   
    15     6     7 ar  
    16     6     8 ar  
    17     7     9 ar  
    18     7    21 1   
    19     8    10 ar  
    20     8    22 1   
    21     9    11 ar  
    22     9    23 1   
    23    10    11 ar  
    24    10    24 1   
    25    11    25 1   
@<TRIPOS>SUBSTRUCTURE
     1 BZS         1 TEMP              0 ****  ****    0 ROOT
