@<TRIPOS>MOLECULE
BZS
   25    25     1     0     0
SMALL
abcg2


@<TRIPOS>ATOM
      1 C1           0.4290     0.1980     3.3820 c          1 BZS       0.726000
      2 C2           0.9040    -0.5760     2.1440 c3         1 BZS      -0.165400
      3 CA           0.4160    -0.0430     0.8050 c3         1 BZS      -0.155700
      4 C           -1.1180     0.0360     0.7450 c          1 BZS       0.742000
      5 CB           0.9320    -0.9570    -0.3210 c3         1 BZS      -0.029100
      6 CG           0.5870    -0.4780    -1.7020 ca         1 BZS      -0.007300
      7 CD1          1.4380     0.3850    -2.3890 ca         1 BZS      -0.097500
      8 CD2         -0.5990    -0.8660    -2.3230 ca         1 BZS      -0.097500
      9 CE1          1.1160     0.8510    -3.6580 ca         1 BZS      -0.127000
     10 CE2         -0.9250    -0.4080    -3.5920 ca         1 BZS      -0.127000
     11 CZ          -0.0690     0.4550    -4.2650 ca         1 BZS      -0.154000
     12 O1          -0.0640     1.3300     3.2090 o          1 BZS      -0.761000
     13 O2           0.6010    -0.3670     4.4850 o          1 BZS      -0.761000
     14 O3          -1.7400    -0.9670     1.1650 o          1 BZS      -0.759000
     15 O4          -1.6330     1.0550     0.2460 o          1 BZS      -0.759000
     16 H21          2.0020    -0.5780     2.1550 hc         1 BZS      -0.004800
     17 H22          0.6160    -1.6260     2.2500 hc         1 BZS      -0.004800
     18 HA           0.8270     0.9570     0.6400 hc         1 BZS       0.038700
     19 HB1          2.0200    -1.0410    -0.2320 hc         1 BZS       0.019200
     20 HB2          0.5320    -1.9640    -0.1670 hc         1 BZS       0.019200
     21 HD1          2.3690     0.6920    -1.9270 ha         1 BZS       0.116500
     22 HD2         -1.2750    -1.5360    -1.8050 ha         1 BZS       0.116500
     23 HE1          1.7940     1.5180    -4.1740 ha         1 BZS       0.079500
     24 HE2         -1.8500    -0.7260    -4.0580 ha         1 BZS       0.079500
     25 HZ          -0.3200     0.8120    -5.2560 ha         1 BZS       0.073000
@<TRIPOS>BOND
     1     1     2 1   
     2     1    12 1   
     3     1    13 1   
     4     2     3 1   
     5     2    16 1   
     6     2    17 1   
     7     3     4 1   
     8     3     5 1   
     9     3    18 1   
    10     4    14 1   
    11     4    15 1   
    12     5     6 1   
    13     5    19 1   
    14     5    20 1   
    15     6     7 ar  
    16     6     8 ar  
    17     7     9 ar  
    18     7    21 1   
    19     8    10 ar  
    20     8    22 1   
    21     9    11 ar  
    22     9    23 1   
    23    10    11 ar  
    24    10    24 1   
    25    11    25 1   
@<TRIPOS>SUBSTRUCTURE
     1 BZS         1 TEMP              0 ****  ****    0 ROOT
