@<TRIPOS>MOLECULE
BZT
   73    78     1     0     0
SMALL
No Charge or Current Charge


@<TRIPOS>ATOM
      1 C1           5.2690     0.6330     3.3690 ca         1 BZT       0.148100
      2 C2           5.2410     1.1110     2.0460 ca         1 BZT      -0.127000
      3 C3           4.2440     0.6420     1.1760 ca         1 BZT      -0.122000
      4 C4           3.3000    -0.2740     1.6020 ca         1 BZT      -0.104800
      5 C5           3.3130    -0.7610     2.9220 ca         1 BZT      -0.025000
      6 C6           4.3090    -0.3000     3.8080 ca         1 BZT      -0.204000
      7 S1           4.0540     1.1440    -0.5220 ss         1 BZT       0.057400
      8 C8           2.6580     0.0450    -0.6420 cc         1 BZT       0.013400
      9 C9           2.3620    -0.6170     0.5440 cd         1 BZT      -0.052400
     10 C7           1.1790    -1.5390     0.7710 c3         1 BZT       0.026100
     11 C10          1.8350    -0.0890    -1.8400 ca         1 BZT      -0.077800
     12 C12          1.1130     1.0180    -2.3220 ca         1 BZT      -0.056500
     13 C14          0.3280     0.9000    -3.4810 ca         1 BZT      -0.176500
     14 C16          0.2620    -0.3190    -4.1750 ca         1 BZT       0.158100
     15 C18          0.9980    -1.4280    -3.7030 ca         1 BZT      -0.176500
     16 C20          1.7830    -1.3080    -2.5430 ca         1 BZT      -0.056500
     17 O2          -0.5250    -0.3740    -5.3050 os         1 BZT      -0.350100
     18 C24         -0.6470    -1.5720    -6.1000 c3         1 BZT       0.162600
     19 C11         -0.5470     0.2750     1.1990 ca         1 BZT      -0.088000
     20 C13          0.0800    -0.9110     1.6210 ca         1 BZT      -0.072300
     21 C15         -0.3220    -1.5070     2.8320 ca         1 BZT      -0.096000
     22 C32         -1.3320    -0.9220     3.6160 ca         1 BZT       0.008100
     23 C19         -1.9600     0.2720     3.1950 ca         1 BZT      -0.057300
     24 C21         -1.5570     0.8620     1.9800 ca         1 BZT      -0.107000
     25 Br1         -1.8260    -1.7910     5.2560 br         1 BZT      -0.096100
     26 C31         -3.0630     0.9350     4.0210 c3         1 BZT       0.218100
     27 C17         -6.3400    -0.4000     2.7810 c5         1 BZT      -0.078900
     28 C23         -6.6700    -0.0220     4.2610 c5         1 BZT      -0.078900
     29 C26         -5.4620     0.8460     4.7000 c5         1 BZT       0.159800
     30 N2          -4.3770     0.2660     3.8870 n3         1 BZT      -0.711600
     31 C27         -4.9540     0.2520     2.5280 c5         1 BZT       0.159800
     32 C22         -1.8820    -0.3510    -9.6000 c5         1 BZT       0.160300
     33 N3          -0.9890    -0.5410    -8.4400 n3         1 BZT      -0.720600
     34 C28         -0.5390     0.8380    -8.1450 c5         1 BZT       0.160300
     35 C29         -0.1500     1.3700    -9.5530 c5         1 BZT      -0.080400
     36 C30         -0.9750     0.4840   -10.5380 c5         1 BZT      -0.080400
     37 C34         -1.5880    -1.2960    -7.3040 c3         1 BZT       0.171800
     38 O1           6.2300     1.0770     4.2270 oh         1 BZT      -0.533100
     39 H2           5.9790     1.8320     1.7060 ha         1 BZT       0.137000
     40 H5           2.5730    -1.4800     3.2620 ha         1 BZT       0.121000
     41 H6           4.3270    -0.6710     4.8290 ha         1 BZT       0.115000
     42 H71          0.7380    -1.8620    -0.1770 hc         1 BZT       0.060700
     43 H72          1.5360    -2.4650     1.2370 hc         1 BZT       0.060700
     44 H12          1.1570     1.9680    -1.7930 ha         1 BZT       0.118500
     45 H14         -0.2330     1.7570    -3.8450 ha         1 BZT       0.123500
     46 H18          0.9740    -2.3820    -4.2190 ha         1 BZT       0.123500
     47 H20          2.3530    -2.1640    -2.1870 ha         1 BZT       0.118500
     48 H241         0.3310    -1.9040    -6.4720 h1         1 BZT       0.044200
     49 H242        -1.0810    -2.3790    -5.4960 h1         1 BZT       0.044200
     50 H11         -0.2510     0.7450     0.2650 ha         1 BZT       0.125000
     51 H15          0.1480    -2.4280     3.1700 ha         1 BZT       0.124000
     52 H21         -2.0310     1.7790     1.6360 ha         1 BZT       0.113000
     53 H311        -2.7550     0.9460     5.0750 h1         1 BZT       0.042200
     54 H312        -3.1500     1.9870     3.7160 h1         1 BZT       0.042200
     55 H171        -6.2900    -1.4880     2.6590 hc         1 BZT       0.046200
     56 H172        -7.0930    -0.0300     2.0760 hc         1 BZT       0.046200
     57 H231        -6.7510    -0.9220     4.8820 hc         1 BZT       0.046200
     58 H232        -7.6170     0.5210     4.3550 hc         1 BZT       0.046200
     59 H261        -5.2690     0.7700     5.7790 h1         1 BZT       0.035450
     60 H262        -5.6240     1.9060     4.4540 h1         1 BZT       0.035450
     61 H271        -5.0630     1.2720     2.1310 h1         1 BZT       0.035450
     62 H272        -4.3510    -0.3290     1.8160 h1         1 BZT       0.035450
     63 H222        -2.7900     0.2040    -9.3230 h1         1 BZT       0.038200
     64 H281        -1.3530     1.4360    -7.7100 h1         1 BZT       0.038200
     65 H282         0.3130     0.8680    -7.4520 h1         1 BZT       0.038200
     66 H291         0.9250     1.2580    -9.7350 hc         1 BZT       0.046700
     67 H292        -0.3850     2.4360    -9.6540 hc         1 BZT       0.046700
     68 H301        -0.3150    -0.1680   -11.1210 hc         1 BZT       0.046700
     69 H302        -1.5590     1.0760   -11.2520 hc         1 BZT       0.046700
     70 H341        -1.9270    -2.2720    -7.6750 h1         1 BZT       0.041200
     71 H342        -2.4820    -0.7760    -6.9330 h1         1 BZT       0.041200
     72 HO1          6.0940     0.6400     5.0950 ho         1 BZT       0.466000
     73 H221        -2.1870    -1.3020   -10.0600 h1         1 BZT       0.038200
@<TRIPOS>BOND
     1     1     2 ar  
     2     1     6 ar  
     3     1    38 1   
     4     2     3 ar  
     5     2    39 1   
     6     3     4 ar  
     7     3     7 1   
     8     4     5 ar  
     9     4     9 1   
    10     5     6 ar  
    11     5    40 1   
    12     6    41 1   
    13     7     8 1   
    14     8     9 2   
    15     8    11 1   
    16     9    10 1   
    17    10    20 1   
    18    10    42 1   
    19    10    43 1   
    20    11    12 ar  
    21    11    16 ar  
    22    12    13 ar  
    23    12    44 1   
    24    13    14 ar  
    25    13    45 1   
    26    14    15 ar  
    27    14    17 1   
    28    15    16 ar  
    29    15    46 1   
    30    16    47 1   
    31    17    18 1   
    32    18    37 1   
    33    18    48 1   
    34    18    49 1   
    35    19    20 ar  
    36    19    24 ar  
    37    19    50 1   
    38    20    21 ar  
    39    21    22 ar  
    40    21    51 1   
    41    22    23 ar  
    42    22    25 1   
    43    23    24 ar  
    44    23    26 1   
    45    24    52 1   
    46    26    30 1   
    47    26    53 1   
    48    26    54 1   
    49    27    28 1   
    50    27    31 1   
    51    27    55 1   
    52    27    56 1   
    53    28    29 1   
    54    28    57 1   
    55    28    58 1   
    56    29    30 1   
    57    29    59 1   
    58    29    60 1   
    59    30    31 1   
    60    31    61 1   
    61    31    62 1   
    62    32    33 1   
    63    32    36 1   
    64    32    63 1   
    65    32    73 1   
    66    33    34 1   
    67    33    37 1   
    68    34    35 1   
    69    34    64 1   
    70    34    65 1   
    71    35    36 1   
    72    35    66 1   
    73    35    67 1   
    74    36    68 1   
    75    36    69 1   
    76    37    70 1   
    77    37    71 1   
    78    38    72 1   
@<TRIPOS>SUBSTRUCTURE
     1 BZT         1 TEMP              0 ****  ****    0 ROOT
