@<TRIPOS>MOLECULE
BZT
   73    78     1     0     0
SMALL
abcg2


@<TRIPOS>ATOM
      1 C1           5.0540     0.7680     3.1620 ca         1 BZT       0.148100
      2 C2           4.9950     1.2080     1.8480 ca         1 BZT      -0.127000
      3 C3           3.9850     0.7070     1.0370 ca         1 BZT      -0.122000
      4 C4           3.0340    -0.2180     1.4940 ca         1 BZT      -0.104800
      5 C5           3.1170    -0.6410     2.8250 ca         1 BZT      -0.025000
      6 C6           4.1130    -0.1550     3.6450 ca         1 BZT      -0.204000
      7 S1           3.7170     1.0940    -0.6290 ss         1 BZT       0.057400
      8 C8           2.3320     0.0280    -0.7080 cc         1 BZT       0.013400
      9 C9           2.0860    -0.5940     0.4750 cd         1 BZT      -0.052400
     10 C7           0.9330    -1.5090     0.7510 c3         1 BZT       0.026100
     11 C10          1.6090    -0.0680    -1.9800 ca         1 BZT      -0.077800
     12 C12          1.1470     1.0830    -2.6270 ca         1 BZT      -0.056500
     13 C14          0.4710     1.0050    -3.8270 ca         1 BZT      -0.176500
     14 C16          0.2300    -0.2360    -4.4230 ca         1 BZT       0.158100
     15 C18          0.6940    -1.3910    -3.7970 ca         1 BZT      -0.176500
     16 C20          1.3780    -1.2960    -2.5920 ca         1 BZT      -0.056500
     17 O2          -0.4460    -0.2150    -5.5820 os         1 BZT      -0.350100
     18 C24         -0.6740    -1.4320    -6.2760 c3         1 BZT       0.162600
     19 C11         -0.5740     0.3690     1.5150 ca         1 BZT      -0.088000
     20 C13         -0.0660    -0.9100     1.7130 ca         1 BZT      -0.072300
     21 C15         -0.5160    -1.6410     2.8060 ca         1 BZT      -0.096000
     22 C32         -1.4570    -1.1000     3.6720 ca         1 BZT       0.008100
     23 C19         -1.9810     0.1760     3.4880 ca         1 BZT      -0.057300
     24 C21         -1.5130     0.8920     2.3880 ca         1 BZT      -0.107000
     25 BR1         -1.9920    -2.1530     5.1510 br         1 BZT      -0.096100
     26 C31         -3.0200     0.7790     4.3940 c3         1 BZT       0.218100
     27 C17         -6.3870    -0.1290     3.2060 c5         1 BZT      -0.078900
     28 C23         -6.5630    -0.1170     4.7390 c5         1 BZT      -0.078900
     29 C26         -5.2690     0.5060     5.2550 c5         1 BZT       0.159800
     30 N2          -4.2920     0.1150     4.2570 n3         1 BZT      -0.711600
     31 C27         -4.9440     0.3380     2.9790 c5         1 BZT       0.159800
     32 C22         -1.4000    -0.5760    -9.8790 c5         1 BZT       0.160300
     33 N3          -0.6840    -0.5690    -8.6140 n3         1 BZT      -0.720600
     34 C28         -0.2760     0.8170    -8.4310 c5         1 BZT       0.160300
     35 C29          0.1540     1.2700    -9.8310 c5         1 BZT      -0.080400
     36 C30         -0.5250     0.2740   -10.7930 c5         1 BZT      -0.080400
     37 C34         -1.4550    -1.1530    -7.5420 c3         1 BZT       0.171800
     38 O1           6.0380     1.2590     3.9420 oh         1 BZT      -0.533100
     39 H2           5.7200     1.9200     1.4730 ha         1 BZT       0.137000
     40 H5           2.4040    -1.3500     3.2240 ha         1 BZT       0.121000
     41 H6           4.1700    -0.4910     4.6740 ha         1 BZT       0.115000
     42 H71          0.4190    -1.7530    -0.1810 hc         1 BZT       0.060700
     43 H72          1.2980    -2.4590     1.1490 hc         1 BZT       0.060700
     44 H12          1.3110     2.0560    -2.1790 ha         1 BZT       0.118500
     45 H14          0.1180     1.9060    -4.3120 ha         1 BZT       0.123500
     46 H18          0.5410    -2.3710    -4.2290 ha         1 BZT       0.123500
     47 H20          1.7500    -2.2040    -2.1330 ha         1 BZT       0.118500
     48 H241         0.2750    -1.9220    -6.5230 h1         1 BZT       0.044200
     49 H242        -1.2550    -2.1170    -5.6490 h1         1 BZT       0.044200
     50 H11         -0.2330     0.9640     0.6760 ha         1 BZT       0.125000
     51 H15         -0.1230    -2.6350     2.9790 ha         1 BZT       0.124000
     52 H21         -1.9050     1.8870     2.2150 ha         1 BZT       0.113000
     53 H311        -2.6960     0.7050     5.4350 h1         1 BZT       0.042200
     54 H312        -3.0990     1.8560     4.1670 h1         1 BZT       0.042200
     55 H171        -6.5500    -1.1290     2.8030 hc         1 BZT       0.046200
     56 H172        -7.0930     0.5330     2.7050 hc         1 BZT       0.046200
     57 H231        -6.6720    -1.1330     5.1200 hc         1 BZT       0.046200
     58 H232        -7.4400     0.4440     5.0610 hc         1 BZT       0.046200
     59 H261        -4.9790     0.1470     6.2440 h1         1 BZT       0.035450
     60 H262        -5.3730     1.6030     5.3190 h1         1 BZT       0.035450
     61 H271        -4.9280     1.4060     2.7030 h1         1 BZT       0.035450
     62 H272        -4.4400    -0.2060     2.1780 h1         1 BZT       0.035450
     63 H222        -2.4020    -0.1240    -9.7820 h1         1 BZT       0.038200
     64 H281        -1.1130     1.4360    -8.0690 h1         1 BZT       0.038200
     65 H282         0.5280     0.9060    -7.7020 h1         1 BZT       0.038200
     66 H291         1.2390     1.2390    -9.9400 hc         1 BZT       0.046700
     67 H292        -0.1540     2.2990   -10.0180 hc         1 BZT       0.046700
     68 H301         0.2180    -0.3480   -11.2930 hc         1 BZT       0.046700
     69 H302        -1.1090     0.7680   -11.5690 hc         1 BZT       0.046700
     70 H341        -1.8240    -2.1220    -7.8890 h1         1 BZT       0.041200
     71 H342        -2.3490    -0.5550    -7.2900 h1         1 BZT       0.041200
     72 HO1          5.9800     0.8900     4.8300 ho         1 BZT       0.466000
     73 H221        -1.5400    -1.5980   -10.2410 h1         1 BZT       0.038200
@<TRIPOS>BOND
     1     1     2 ar  
     2     1     6 ar  
     3     1    38 1   
     4     2     3 ar  
     5     2    39 1   
     6     3     4 ar  
     7     3     7 1   
     8     4     5 ar  
     9     4     9 1   
    10     5     6 ar  
    11     5    40 1   
    12     6    41 1   
    13     7     8 1   
    14     8     9 2   
    15     8    11 1   
    16     9    10 1   
    17    10    20 1   
    18    10    42 1   
    19    10    43 1   
    20    11    12 ar  
    21    11    16 ar  
    22    12    13 ar  
    23    12    44 1   
    24    13    14 ar  
    25    13    45 1   
    26    14    15 ar  
    27    14    17 1   
    28    15    16 ar  
    29    15    46 1   
    30    16    47 1   
    31    17    18 1   
    32    18    37 1   
    33    18    48 1   
    34    18    49 1   
    35    19    20 ar  
    36    19    24 ar  
    37    19    50 1   
    38    20    21 ar  
    39    21    22 ar  
    40    21    51 1   
    41    22    23 ar  
    42    22    25 1   
    43    23    24 ar  
    44    23    26 1   
    45    24    52 1   
    46    26    30 1   
    47    26    53 1   
    48    26    54 1   
    49    27    28 1   
    50    27    31 1   
    51    27    55 1   
    52    27    56 1   
    53    28    29 1   
    54    28    57 1   
    55    28    58 1   
    56    29    30 1   
    57    29    59 1   
    58    29    60 1   
    59    30    31 1   
    60    31    61 1   
    61    31    62 1   
    62    32    33 1   
    63    32    36 1   
    64    32    63 1   
    65    32    73 1   
    66    33    34 1   
    67    33    37 1   
    68    34    35 1   
    69    34    64 1   
    70    34    65 1   
    71    35    36 1   
    72    35    66 1   
    73    35    67 1   
    74    36    68 1   
    75    36    69 1   
    76    37    70 1   
    77    37    71 1   
    78    38    72 1   
@<TRIPOS>SUBSTRUCTURE
     1 BZT         1 TEMP              0 ****  ****    0 ROOT
