@<TRIPOS>MOLECULE
BZU
   44    45     1     0     0
SMALL
No Charge or Current Charge


@<TRIPOS>ATOM
      1 C3           0.9750    -1.1900     1.4870 cc         1 BZU      -0.432500
      2 C9           4.9900    -0.6080     4.2130 c6         1 BZU       0.200800
      3 C10          4.5320    -1.1920     2.8160 c6         1 BZU       0.204800
      4 C12          4.6830    -3.6210     5.1430 c3         1 BZU       0.133600
      5 C14          3.3690    -4.9290     3.5850 c3         1 BZU       0.163600
      6 C15          1.9600    -4.9620     2.9730 c3         1 BZU      -0.093100
      7 O1A          0.3410    -2.2050    -0.8500 o          1 BZU      -0.543500
      8 O2A         -1.5450    -1.5970     0.7970 o          1 BZU      -0.543500
      9 N21         -0.2260     0.1200    -0.3970 n8         1 BZU      -1.014100
     10 S1          -0.2190    -1.3860     0.2200 sy         1 BZU       1.176600
     11 C4           2.3450    -1.2810     1.3750 cd         1 BZU      -0.018000
     12 C5           3.0170    -1.0970     2.6180 cd         1 BZU      -0.018300
     13 C6           2.1270    -0.8870     3.6410 cc         1 BZU      -0.399500
     14 S2           0.4630    -0.9210     3.1370 ss         1 BZU       0.512000
     15 S7           2.5590    -0.7240     5.3270 sy         1 BZU       1.223600
     16 O3B          1.8380    -1.7760     6.0510 o          1 BZU      -0.530000
     17 O4B          2.3920     0.6800     5.7160 o          1 BZU      -0.530000
     18 N8           4.2240    -1.0520     5.4190 n3         1 BZU      -0.751500
     19 N16          5.2340    -0.5200     1.6870 n7         1 BZU      -0.853400
     20 O13          3.4100    -3.8300     4.5040 os         1 BZU      -0.458000
     21 C17          6.6930    -0.7020     1.5880 c3         1 BZU       0.151800
     22 C18          7.2210     0.0180     0.3380 c3         1 BZU      -0.095100
     23 H91          6.0590    -0.8240     4.3530 h1         1 BZU       0.080200
     24 H92          4.9170     0.4870     4.1370 h1         1 BZU       0.080200
     25 H10          4.7990    -2.2560     2.7780 h1         1 BZU       0.038700
     26 H111         4.0270    -2.5690     6.9210 h1         1 BZU       0.075200
     27 H112         5.6610    -2.2230     6.4300 h1         1 BZU       0.075200
     28 H121         4.9410    -4.4850     5.7690 h1         1 BZU       0.028200
     29 H122         5.4790    -3.5090     4.3960 h1         1 BZU       0.028200
     30 H141         4.1110    -4.7970     2.7870 h1         1 BZU       0.017700
     31 H142         3.5710    -5.8760     4.1010 h1         1 BZU       0.017700
     32 H151         1.8740    -5.7940     2.2640 hc         1 BZU       0.047033
     33 H152         1.2030    -5.0940     3.7540 hc         1 BZU       0.047033
     34 H153         1.7510    -4.0300     2.4350 hc         1 BZU       0.047033
     35 HN11         0.6640     0.4750    -0.0590 hn         1 BZU       0.480500
     36 HN12        -0.0530    -0.0830    -1.3780 hn         1 BZU       0.480500
     37 H4           2.8550    -1.4890     0.4390 ha         1 BZU       0.145000
     38 HN6          4.8250    -0.8640     0.8130 hn         1 BZU       0.416000
     39 H171         7.2000    -0.2910     2.4710 h1         1 BZU       0.030700
     40 H172         6.9440    -1.7690     1.5180 h1         1 BZU       0.030700
     41 H181         6.7630    -0.3900    -0.5710 hc         1 BZU       0.041700
     42 H182         7.0040     1.0920     0.3870 hc         1 BZU       0.041700
     43 H183         8.3070    -0.1080     0.2590 hc         1 BZU       0.041700
     44 C11          4.6430    -2.3470     6.0390 c3         1 BZU       0.222800
@<TRIPOS>BOND
     1     1    10 1   
     2     1    11 2   
     3     1    14 1   
     4     2     3 1   
     5     2    18 1   
     6     2    23 1   
     7     2    24 1   
     8     3    12 1   
     9     3    19 1   
    10     3    25 1   
    11     4    20 1   
    12     4    28 1   
    13     4    29 1   
    14     4    44 1   
    15     5     6 1   
    16     5    20 1   
    17     5    30 1   
    18     5    31 1   
    19     6    32 1   
    20     6    33 1   
    21     6    34 1   
    22     7    10 2   
    23     8    10 2   
    24     9    10 1   
    25     9    35 1   
    26     9    36 1   
    27    11    12 1   
    28    11    37 1   
    29    12    13 2   
    30    13    14 1   
    31    13    15 1   
    32    15    16 2   
    33    15    17 2   
    34    15    18 1   
    35    18    44 1   
    36    19    21 1   
    37    19    38 1   
    38    21    22 1   
    39    21    39 1   
    40    21    40 1   
    41    22    41 1   
    42    22    42 1   
    43    22    43 1   
    44    26    44 1   
    45    27    44 1   
@<TRIPOS>SUBSTRUCTURE
     1 BZU         1 TEMP              0 ****  ****    0 ROOT
