@<TRIPOS>MOLECULE
BZU
   44    45     1     0     0
SMALL
abcg2


@<TRIPOS>ATOM
      1 C3           1.2320    -1.3930     1.4550 cc         1 BZU      -0.432500
      2 C9           5.1510    -0.7510     4.1670 c6         1 BZU       0.200800
      3 C10          4.7370    -1.2180     2.7560 c6         1 BZU       0.204800
      4 C12          4.4530    -3.6970     5.0610 c3         1 BZU       0.133600
      5 C14          3.0360    -4.7330     3.5020 c3         1 BZU       0.163600
      6 C15          1.5890    -4.8330     3.0780 c3         1 BZU      -0.093100
      7 O1A          0.7720    -2.3930    -0.8740 o          1 BZU      -0.543500
      8 O2A         -1.0800    -2.3860     0.8240 o          1 BZU      -0.543500
      9 N21         -0.4470    -0.2150    -0.1940 n8         1 BZU      -1.014100
     10 S1           0.0560    -1.7300     0.2010 sy         1 BZU       1.176600
     11 C4           2.5860    -1.4750     1.3390 cd         1 BZU      -0.018000
     12 C5           3.2440    -1.1820     2.5640 cd         1 BZU      -0.018300
     13 C6           2.3340    -0.9150     3.5440 cc         1 BZU      -0.399500
     14 S2           0.7070    -0.9860     3.0350 ss         1 BZU       0.512000
     15 S7           2.7820    -0.5690     5.2070 sy         1 BZU       1.223600
     16 O3B          1.9030    -1.2870     6.1060 o          1 BZU      -0.530000
     17 O4B          2.8690     0.8750     5.3280 o          1 BZU      -0.530000
     18 N8           4.2880    -1.2010     5.2520 n3         1 BZU      -0.751500
     19 N16          5.3730    -0.3470     1.7790 n7         1 BZU      -0.853400
     20 O13          3.1610    -3.7710     4.5260 os         1 BZU      -0.458000
     21 C17          6.8200    -0.5110     1.7170 c3         1 BZU       0.151800
     22 C18          7.3960     0.2810     0.5580 c3         1 BZU      -0.095100
     23 H91          6.1560    -1.1020     4.3970 h1         1 BZU       0.080200
     24 H92          5.1920     0.3410     4.1640 h1         1 BZU       0.080200
     25 H10          5.0540    -2.2640     2.6140 h1         1 BZU       0.038700
     26 H111         3.8910    -2.5430     6.7900 h1         1 BZU       0.075200
     27 H112         5.5710    -2.4000     6.3320 h1         1 BZU       0.075200
     28 H121         4.6890    -4.5750     5.6790 h1         1 BZU       0.028200
     29 H122         5.2150    -3.6650     4.2700 h1         1 BZU       0.028200
     30 H141         3.6640    -4.4570     2.6430 h1         1 BZU       0.017700
     31 H142         3.3910    -5.7130     3.8480 h1         1 BZU       0.017700
     32 H151         1.4920    -5.5540     2.2670 hc         1 BZU       0.047033
     33 H152         0.9560    -5.1640     3.9010 hc         1 BZU       0.047033
     34 H153         1.2110    -3.8760     2.7180 hc         1 BZU       0.047033
     35 HN11         0.2020     0.2770    -0.7990 hn         1 BZU       0.480500
     36 HN12        -1.3810    -0.2190    -0.5920 hn         1 BZU       0.480500
     37 H4           3.0890    -1.7530     0.4230 ha         1 BZU       0.145000
     38 HN6          5.0040    -0.5590     0.8590 hn         1 BZU       0.416000
     39 H171         7.2620    -0.1520     2.6490 h1         1 BZU       0.030700
     40 H172         7.1090    -1.5690     1.6240 h1         1 BZU       0.030700
     41 H181         6.9970    -0.0690    -0.3960 hc         1 BZU       0.041700
     42 H182         7.1630     1.3410     0.6530 hc         1 BZU       0.041700
     43 H183         8.4790     0.1720     0.5240 hc         1 BZU       0.041700
     44 C11          4.5570    -2.4640     5.9330 c3         1 BZU       0.222800
@<TRIPOS>BOND
     1     1    10 1   
     2     1    11 2   
     3     1    14 1   
     4     2     3 1   
     5     2    18 1   
     6     2    23 1   
     7     2    24 1   
     8     3    12 1   
     9     3    19 1   
    10     3    25 1   
    11     4    20 1   
    12     4    28 1   
    13     4    29 1   
    14     4    44 1   
    15     5     6 1   
    16     5    20 1   
    17     5    30 1   
    18     5    31 1   
    19     6    32 1   
    20     6    33 1   
    21     6    34 1   
    22     7    10 2   
    23     8    10 2   
    24     9    10 1   
    25     9    35 1   
    26     9    36 1   
    27    11    12 1   
    28    11    37 1   
    29    12    13 2   
    30    13    14 1   
    31    13    15 1   
    32    15    16 2   
    33    15    17 2   
    34    15    18 1   
    35    18    44 1   
    36    19    21 1   
    37    19    38 1   
    38    21    22 1   
    39    21    39 1   
    40    21    40 1   
    41    22    41 1   
    42    22    42 1   
    43    22    43 1   
    44    26    44 1   
    45    27    44 1   
@<TRIPOS>SUBSTRUCTURE
     1 BZU         1 TEMP              0 ****  ****    0 ROOT
